Circuit: * Z:\home\matias\Mati\FIUBA\Circuitos2\TPSS\circuitos2_proyecto\simulaciones\douglasSape.asc

Warning: Multiple definitions of model "bc817-16" Type: BJT
Warning: Multiple definitions of model "bc848b" Type: BJT
Warning: Multiple definitions of model "bc807-16" Type: BJT
Warning: Multiple definitions of model "bcx17" Type: BJT
Warning: Multiple definitions of model "bc858b" Type: BJT
Warning: Multiple definitions of model "2sd1898" Type: BJT
Warning: Multiple definitions of model "d45h11" Type: BJT
Warning: Multiple definitions of model "bc856b" Type: BJT
Warning: Multiple definitions of model "bc556b" Type: BJT
Warning: Multiple definitions of model "bc846b" Type: BJT
Warning: Multiple definitions of model "bc546b" Type: BJT
Warning: Multiple definitions of model "bc327-40" Type: BJT
Warning: Multiple definitions of model "bc327-25" Type: BJT
Warning: Multiple definitions of model "bc807-40" Type: BJT
Warning: Multiple definitions of model "bc807-25" Type: BJT
Warning: Multiple definitions of model "bc857c" Type: BJT
Warning: Multiple definitions of model "bc857b" Type: BJT
Warning: Multiple definitions of model "bc857a" Type: BJT
Warning: Multiple definitions of model "bc557c" Type: BJT
Warning: Multiple definitions of model "bc557b" Type: BJT
Warning: Multiple definitions of model "bc337-40" Type: BJT
Warning: Multiple definitions of model "bc337-25" Type: BJT
Warning: Multiple definitions of model "bc817-40" Type: BJT
Warning: Multiple definitions of model "bc817-25" Type: BJT
Warning: Multiple definitions of model "bc847c" Type: BJT
Warning: Multiple definitions of model "bc847b" Type: BJT
Warning: Multiple definitions of model "bc847a" Type: BJT
Warning: Multiple definitions of model "bc547c" Type: BJT
Warning: Multiple definitions of model "bc547b" Type: BJT
Warning: Multiple definitions of model "2n3019" Type: BJT
Warning: Multiple definitions of model "bcw68g" Type: BJT
Warning: Multiple definitions of model "bcw68f" Type: BJT
Warning: Multiple definitions of model "bcw60d" Type: BJT
Warning: Multiple definitions of model "bcw60c" Type: BJT
Warning: Multiple definitions of model "bcw60b" Type: BJT
Warning: Multiple definitions of model "bcw60a" Type: BJT
Warning: Multiple definitions of model "2n3055" Type: BJT
Warning: Multiple definitions of model "2n5771" Type: BJT
Warning: Multiple definitions of model "2n5769" Type: BJT
Warning: Multiple definitions of model "2n2369" Type: BJT
Warning: Multiple definitions of model "2n5401" Type: BJT
Warning: Multiple definitions of model "2n5550" Type: BJT
Warning: Multiple definitions of model "2n4403" Type: BJT
Warning: Multiple definitions of model "2n4401" Type: BJT
Warning: Multiple definitions of model "2n2905a" Type: BJT
Warning: Multiple definitions of model "2n2219a" Type: BJT
Warning: Multiple definitions of model "2n5087" Type: BJT
Warning: Multiple definitions of model "2n5210" Type: BJT
Warning: Multiple definitions of model "2n5089" Type: BJT
Warning: Multiple definitions of model "2n3391a" Type: BJT
Warning: Multiple definitions of model "2n4126" Type: BJT
Warning: Multiple definitions of model "2n4124" Type: BJT
Warning: Multiple definitions of model "ztx1048a" Type: BJT
Warning: Multiple definitions of model "ztx849" Type: BJT
Warning: Multiple definitions of model "fzt849" Type: BJT
Warning: Multiple definitions of model "2n3906" Type: BJT
Warning: Multiple definitions of model "2n3904" Type: BJT
Warning: Multiple definitions of model "2n2907" Type: BJT
Warning: Multiple definitions of model "2n2222" Type: BJT
WARNING: Node NC_04 is floating.

WARNING: Less than two connections to node NC_01.  This node is used by V:U1:I2.
WARNING: Less than two connections to node NC_02.  This node is used by Q12.
WARNING: Less than two connections to node NC_03.  This node is used by Q12.
WARNING: Less than two connections to node NC_04.  This node is used by Q12.
Direct Newton iteration for .op point succeeded.
N-Period=1
Fourier components of V(n014)
DC component:0.57066

Harmonic	Frequency	 Fourier 	Normalized	 Phase  	Normalized
 Number 	  [Hz]   	Component	 Component	[degree]	Phase [deg]
    1   	1.000e+03	9.944e-02	1.000e+00	    0.01°	    0.00°
    2   	2.000e+03	1.137e-07	1.143e-06	  178.37°	  178.36°
    3   	3.000e+03	7.015e-08	7.055e-07	 -167.37°	 -167.38°
    4   	4.000e+03	5.298e-08	5.328e-07	 -164.05°	 -164.06°
    5   	5.000e+03	4.150e-08	4.173e-07	 -159.32°	 -159.33°
    6   	6.000e+03	3.321e-08	3.340e-07	 -154.66°	 -154.67°
    7   	7.000e+03	2.735e-08	2.750e-07	 -149.83°	 -149.84°
    8   	8.000e+03	2.389e-08	2.403e-07	 -143.84°	 -143.85°
    9   	9.000e+03	2.084e-08	2.096e-07	 -135.77°	 -135.78°
Total Harmonic Distortion: 0.000160%(0.012519%)



Date: Sat Nov 10 20:11:43 2018
Total elapsed time: 0.612 seconds.

tnom = 27
temp = 25
method = modified trap
totiter = 22279
traniter = 22242
tranpoints = 11047
accept = 11040
rejected = 7
matrix size = 87
fillins = 85
solver = Normal
Matrix Compiler1: 10.95 KB object code size  2.9/1.8/[1.1]
Matrix Compiler2: off  [1.4]/2.3/1.5

