Circuit: * Z:\home\matias\Mati\FIUBA\Circuitos2\TPSS\circuitos2_proyecto\simulaciones\Draft1.asc

WARNING: Less than two connections to node N001.  This node is used by V1.
Direct Newton iteration for .op point succeeded.

Date: Sat Nov 10 13:36:12 2018
Total elapsed time: 0.070 seconds.

tnom = 27
temp = 27
method = modified trap
totiter = 7765
traniter = 7762
tranpoints = 3882
accept = 2418
rejected = 1464
matrix size = 5
fillins = 0
solver = Normal
Matrix Compiler1: 96 bytes object code size  0.6/0.5/[0.5]
Matrix Compiler2: 247 bytes object code size  0.6/0.6/[0.6]

