Circuit: * Z:\home\matias\Mati\FIUBA\Circuitos2\TPSS\circuitos2_proyecto\simulaciones\Intento etapa de entrada.asc

Direct Newton iteration for .op point succeeded.
N-Period=1
Fourier components of V(out)
DC component:-0.016144

Harmonic	Frequency	 Fourier 	Normalized	 Phase  	Normalized
 Number 	  [Hz]   	Component	 Component	[degree]	Phase [deg]
    1   	2.000e+04	1.059e-25	1.000e+00	  -86.77°	    0.00°
    2   	4.000e+04	4.229e-25	3.994e+00	  -83.53°	    3.23°
    3   	6.000e+04	9.490e-25	8.962e+00	  -80.30°	    6.47°
    4   	8.000e+04	1.681e-24	1.587e+01	  -77.07°	    9.70°
    5   	1.000e+05	2.614e-24	2.468e+01	  -73.84°	   12.93°
    6   	1.200e+05	3.742e-24	3.534e+01	  -70.60°	   16.17°
    7   	1.400e+05	5.058e-24	4.776e+01	  -67.37°	   19.40°
    8   	1.600e+05	6.554e-24	6.189e+01	  -64.14°	   22.63°
    9   	1.800e+05	8.219e-24	7.761e+01	  -60.90°	   25.86°
Total Harmonic Distortion: 11975.600811%(106565875664.187330%)



Date: Fri Nov 09 19:26:47 2018
Total elapsed time: 1.115 seconds.

tnom = 27
temp = 27
method = modified trap
totiter = 46052
traniter = 46044
tranpoints = 23023
accept = 23021
rejected = 2
matrix size = 69
fillins = 74
solver = Normal
Matrix Compiler1: 9.90 KB object code size  2.5/1.7/[1.2]
Matrix Compiler2: 7.66 KB object code size  1.3/1.9/[1.0]

