Circuit: * Z:\home\matias\Mati\FIUBA\Circuitos2\TPSS\circuitos2_proyecto\simulaciones\Intento etapa de entrada.asc

Direct Newton iteration for .op point succeeded.
N-Period=1
Fourier components of V(out)
DC component:0.00826271

Harmonic	Frequency	 Fourier 	Normalized	 Phase  	Normalized
 Number 	  [Hz]   	Component	 Component	[degree]	Phase [deg]
    1   	2.000e+04	2.433e+01	1.000e+00	  -14.49°	    0.00°
    2   	4.000e+04	3.877e-02	1.593e-03	  136.39°	  150.88°
    3   	6.000e+04	1.027e-02	4.221e-04	  -77.14°	  -62.65°
    4   	8.000e+04	1.689e-02	6.941e-04	   62.59°	   77.08°
    5   	1.000e+05	1.091e-02	4.482e-04	 -147.28°	 -132.79°
    6   	1.200e+05	1.291e-02	5.308e-04	    3.05°	   17.55°
    7   	1.400e+05	7.142e-03	2.935e-04	  146.38°	  160.87°
    8   	1.600e+05	6.627e-03	2.723e-04	  -45.41°	  -30.92°
    9   	1.800e+05	6.301e-03	2.590e-04	   33.42°	   47.92°
Total Harmonic Distortion: 0.197715%(0.204295%)



Date: Tue Nov 13 19:22:44 2018
Total elapsed time: 2.820 seconds.

tnom = 27
temp = 27
method = modified trap
totiter = 223856
traniter = 223847
tranpoints = 80061
accept = 61790
rejected = 18271
matrix size = 67
fillins = 74
solver = Normal
Matrix Compiler1: 9.75 KB object code size  2.6/1.6/[1.1]
Matrix Compiler2: 7.52 KB object code size  1.3/1.6/[1.2]

