Circuit: * Z:\home\matias\Mati\FIUBA\Circuitos2\TPSS\circuitos2_proyecto\simulaciones\Intento etapa de entrada.asc

<<<<<<< HEAD
WARNING: Less than two connections to node +VCOMP.  This node is used by V6.
WARNING: Less than two connections to node -VCOMP.  This node is used by V7.
Direct Newton iteration failed to find .op point.  (Use ".option noopiter" to skip.)
Starting Gmin stepping
Gmin = 10
Gmin = 1.07374
vernier = 0.5
vernier = 0.25
vernier = 0.125
vernier = 0.0625
Gmin = 0.995033
vernier = 0.03125
vernier = 0.015625
vernier = 0.0078125
vernier = 0.00390625
Gmin = 0.999816
vernier = 0.00195313
vernier = 0.000976563
vernier = 0.000488281
Gmin = 0
Gmin stepping failed

Starting source stepping with srcstepmethod=0
Source Step = 3.0303%
vernier = 0.25
Source Step = 2.36742%
Source Step = 2.84091%
Source Step = 3.31439%
Source Step = 3.78788%
Source Step = 4.26136%
vernier = 0.0234375
Source Step = 4.75852%
Source Step = 5.46875%
Source Step = 6.17898%
Source Step = 6.8892%
Source Step = 7.59943%
Source Step = 8.30966%
vernier = 0.0351563
Source Step = 9.375%
Source Step = 10.4403%
Source Step = 11.5057%
Source Step = 12.571%
Source Step = 13.6364%
vernier = 0.0527344
Source Step = 15.1811%
Source Step = 16.7791%
Source Step = 18.3771%
Source Step = 19.9751%
Source Step = 21.5732%
vernier = 0.0791016
Source Step = 23.8104%
Source Step = 26.2074%
Source Step = 28.6044%
Source Step = 31.0014%
Source Step = 33.3984%
vernier = 0.118652
Source Step = 36.6344%
Source Step = 40.2299%
Source Step = 43.8255%
Source Step = 47.421%
Source Step = 51.0165%
vernier = 0.177979
Source Step = 55.6907%
Source Step = 61.084%
Source Step = 66.4773%
Source Step = 70.5222%
Source Step = 70.7161%
Source Step = 70.8003%
Source Step = 70.8846%
Source Step = 70.9689%
Source Step = 71.0531%
vernier = 0.00417137
Source Step = 71.1501%
Source Step = 71.2765%
Source Step = 71.4029%
Source Step = 71.5293%
Source Step = 71.6557%
vernier = 0.00625706
Source Step = 71.7947%
Source Step = 71.9843%
Source Step = 72.1739%
Source Step = 72.3635%
Source Step = 72.5531%
vernier = 0.00938559
Source Step = 72.7522%
Source Step = 73.0366%
Source Step = 73.3211%
Source Step = 73.6055%
Source Step = 73.8899%
Source Step = 74.1743%
vernier = 0.0140784
Source Step = 74.6009%
Source Step = 75.0275%
Source Step = 75.4541%
Source Step = 75.8808%
Source Step = 76.3074%
vernier = 0.0211176
Source Step = 76.926%
Source Step = 77.5659%
Source Step = 78.2058%
Source Step = 78.8458%
Source Step = 79.4857%
vernier = 0.0316764
Source Step = 80.3816%
Source Step = 81.3415%
Source Step = 82.3014%
Source Step = 83.2612%
Source Step = 84.2211%
vernier = 0.0475145
Source Step = 85.517%
Source Step = 86.9568%
Source Step = 88.3967%
Source Step = 89.8365%
Source Step = 90.4484%
Source Step = 90.5384%
Source Step = 90.6284%
Source Step = 90.7184%
Source Step = 90.8084%
vernier = 0.00445449
Source Step = 90.9029%
Source Step = 91.0379%
Source Step = 91.1728%
Source Step = 91.3078%
Source Step = 91.4428%
Source Step = 91.5778%
vernier = 0.00668173
Source Step = 91.7803%
Source Step = 91.9827%
Source Step = 92.1852%
Source Step = 92.3877%
Source Step = 92.5902%
vernier = 0.0100226
Source Step = 92.8838%
Source Step = 93.1875%
Source Step = 93.4912%
Source Step = 93.7949%
Source Step = 94.0986%
vernier = 0.0150339
Source Step = 94.5238%
Source Step = 94.9794%
Source Step = 95.435%
Source Step = 95.8905%
Source Step = 96.3461%
vernier = 0.0225508
Source Step = 96.9611%
Source Step = 97.6445%
Source Step = 98.3279%
Source Step = 99.0112%
Source Step = 99.6946%
vernier = 0.0338263
Source stepping succeeded in finding the operating point.

N-Period=1
Fourier components of V(out)
DC component:2.04378

Harmonic	Frequency	 Fourier 	Normalized	 Phase  	Normalized
 Number 	  [Hz]   	Component	 Component	[degree]	Phase [deg]
    1   	1.000e+03	2.003e+01	1.000e+00	   -0.63°	    0.00°
    2   	2.000e+03	3.616e+00	1.805e-01	  -91.10°	  -90.47°
    3   	3.000e+03	1.747e+00	8.724e-02	   -2.00°	   -1.37°
    4   	4.000e+03	2.753e-01	1.375e-02	   85.89°	   86.53°
    5   	5.000e+03	4.078e-01	2.036e-02	   -2.96°	   -2.33°
    6   	6.000e+03	3.978e-01	1.986e-02	   85.70°	   86.33°
    7   	7.000e+03	8.124e-02	4.057e-03	  173.15°	  173.78°
    8   	8.000e+03	1.613e-01	8.056e-03	   85.36°	   85.99°
    9   	9.000e+03	1.729e-01	8.631e-03	  173.89°	  174.52°
Total Harmonic Distortion: 20.337455%(20.359805%)



Date: Mon Nov 12 14:57:26 2018
Total elapsed time: 3.131 seconds.
=======
Direct Newton iteration for .op point succeeded.
N-Period=1
Fourier components of V(out)
DC component:0.00826271

Harmonic	Frequency	 Fourier 	Normalized	 Phase  	Normalized
 Number 	  [Hz]   	Component	 Component	[degree]	Phase [deg]
    1   	2.000e+04	2.433e+01	1.000e+00	  -14.49°	    0.00°
    2   	4.000e+04	3.877e-02	1.593e-03	  136.39°	  150.88°
    3   	6.000e+04	1.027e-02	4.221e-04	  -77.14°	  -62.65°
    4   	8.000e+04	1.689e-02	6.941e-04	   62.59°	   77.08°
    5   	1.000e+05	1.091e-02	4.482e-04	 -147.28°	 -132.79°
    6   	1.200e+05	1.291e-02	5.308e-04	    3.05°	   17.55°
    7   	1.400e+05	7.142e-03	2.935e-04	  146.38°	  160.87°
    8   	1.600e+05	6.627e-03	2.723e-04	  -45.41°	  -30.92°
    9   	1.800e+05	6.301e-03	2.590e-04	   33.42°	   47.92°
Total Harmonic Distortion: 0.197715%(0.204295%)



Date: Tue Nov 13 19:22:44 2018
Total elapsed time: 2.820 seconds.
>>>>>>> mati

tnom = 27
temp = 27
method = modified trap
<<<<<<< HEAD
totiter = 75980
traniter = 68550
tranpoints = 29049
accept = 26767
rejected = 2282
matrix size = 118
fillins = 228
solver = Normal
Thread vector: 19.1/12.8[2] 6.1/4.5[2] 6.2/4.5[2] 1.2/2.2[1]  2592/500
Matrix Compiler1: 21.32 KB object code size  5.6/3.0/[1.8]
Matrix Compiler2: 14.47 KB object code size  2.8/3.3/[1.4]
=======
totiter = 223856
traniter = 223847
tranpoints = 80061
accept = 61790
rejected = 18271
matrix size = 67
fillins = 74
solver = Normal
Matrix Compiler1: 9.75 KB object code size  2.6/1.6/[1.1]
Matrix Compiler2: 7.52 KB object code size  1.3/1.6/[1.2]
>>>>>>> mati

