Circuit: * Z:\home\matias\Mati\FIUBA\Circuitos2\TPSS\circuitos2_proyecto\Circuitos II-20181207T191743Z-001\Circuitos II\Simu\douglasSape.asc

Warning: Multiple definitions of model "bc817-16" Type: BJT
Warning: Multiple definitions of model "bc848b" Type: BJT
Warning: Multiple definitions of model "bc807-16" Type: BJT
Warning: Multiple definitions of model "bcx17" Type: BJT
Warning: Multiple definitions of model "bc858b" Type: BJT
Warning: Multiple definitions of model "2sd1898" Type: BJT
Warning: Multiple definitions of model "d45h11" Type: BJT
Warning: Multiple definitions of model "bc856b" Type: BJT
Warning: Multiple definitions of model "bc556b" Type: BJT
Warning: Multiple definitions of model "bc846b" Type: BJT
Warning: Multiple definitions of model "bc546b" Type: BJT
Warning: Multiple definitions of model "bc327-40" Type: BJT
Warning: Multiple definitions of model "bc327-25" Type: BJT
Warning: Multiple definitions of model "bc807-40" Type: BJT
Warning: Multiple definitions of model "bc807-25" Type: BJT
Warning: Multiple definitions of model "bc857c" Type: BJT
Warning: Multiple definitions of model "bc857b" Type: BJT
Warning: Multiple definitions of model "bc857a" Type: BJT
Warning: Multiple definitions of model "bc557c" Type: BJT
Warning: Multiple definitions of model "bc557b" Type: BJT
Warning: Multiple definitions of model "bc337-40" Type: BJT
Warning: Multiple definitions of model "bc337-25" Type: BJT
Warning: Multiple definitions of model "bc817-40" Type: BJT
Warning: Multiple definitions of model "bc817-25" Type: BJT
Warning: Multiple definitions of model "bc847c" Type: BJT
Warning: Multiple definitions of model "bc847b" Type: BJT
Warning: Multiple definitions of model "bc847a" Type: BJT
Warning: Multiple definitions of model "bc547c" Type: BJT
Warning: Multiple definitions of model "bc547b" Type: BJT
Warning: Multiple definitions of model "2n3019" Type: BJT
Warning: Multiple definitions of model "bcw68g" Type: BJT
Warning: Multiple definitions of model "bcw68f" Type: BJT
Warning: Multiple definitions of model "bcw60d" Type: BJT
Warning: Multiple definitions of model "bcw60c" Type: BJT
Warning: Multiple definitions of model "bcw60b" Type: BJT
Warning: Multiple definitions of model "bcw60a" Type: BJT
Warning: Multiple definitions of model "2n3055" Type: BJT
Warning: Multiple definitions of model "2n5771" Type: BJT
Warning: Multiple definitions of model "2n5769" Type: BJT
Warning: Multiple definitions of model "2n2369" Type: BJT
Warning: Multiple definitions of model "2n5401" Type: BJT
Warning: Multiple definitions of model "2n5550" Type: BJT
Warning: Multiple definitions of model "2n4403" Type: BJT
Warning: Multiple definitions of model "2n4401" Type: BJT
Warning: Multiple definitions of model "2n2905a" Type: BJT
Warning: Multiple definitions of model "2n2219a" Type: BJT
Warning: Multiple definitions of model "2n5087" Type: BJT
Warning: Multiple definitions of model "2n5210" Type: BJT
Warning: Multiple definitions of model "2n5089" Type: BJT
Warning: Multiple definitions of model "2n3391a" Type: BJT
Warning: Multiple definitions of model "2n4126" Type: BJT
Warning: Multiple definitions of model "2n4124" Type: BJT
Warning: Multiple definitions of model "ztx1048a" Type: BJT
Warning: Multiple definitions of model "ztx849" Type: BJT
Warning: Multiple definitions of model "fzt849" Type: BJT
Warning: Multiple definitions of model "2n3906" Type: BJT
Warning: Multiple definitions of model "2n3904" Type: BJT
Warning: Multiple definitions of model "2n2907" Type: BJT
Warning: Multiple definitions of model "2n2222" Type: BJT
WARNING: Less than two connections to node V+.  This node is used by V12.
WARNING: Less than two connections to node V-.  This node is used by V13.
Direct Newton iteration for .op point succeeded.
Changing Tseed to 9.76562e-010
Changing Tseed to 9.76562e-012
Changing Tseed to 9.76562e-009
Changing Tseed to 9.76562e-013
Heightened Def Con from 1.98852e-011 to 5.11657e-011
Heightened Def Con from 5.67617e-011 to 7.43398e-011
Heightened Def Con from 8.22615e-011 to 8.27803e-011
Heightened Def Con from 8.99664e-011 to 9.77789e-011
Heightened Def Con from 1.33988e-010 to 1.418e-010
Heightened Def Con from 1.60145e-010 to 1.67957e-010
Heightened Def Con from 1.79762e-010 to 1.7977e-010
Heightened Def Con from 1.79818e-010 to 1.97396e-010
Heightened Def Con from 2.05782e-010 to 2.09719e-010
Heightened Def Con from 2.13443e-010 to 2.62271e-010
Heightened Def Con from 2.92561e-010 to 3.25765e-010
Heightened Def Con from 3.85763e-010 to 4.32638e-010
Heightened Def Con from 4.38933e-010 to 4.56511e-010
Heightened Def Con from 5.17545e-010 to 1.5195e-009
Heightened Def Con from 1.55864e-009 to 1.57622e-009
Heightened Def Con from 1.58457e-009 to 1.60215e-009
Heightened Def Con from 1.61348e-009 to 1.61739e-009
Heightened Def Con from 1.62067e-009 to 1.62482e-009
Heightened Def Con from 1.62888e-009 to 1.66208e-009
Heightened Def Con from 1.67015e-009 to 1.67234e-009
Heightened Def Con from 1.67306e-009 to 1.67892e-009
Heightened Def Con from 1.69429e-009 to 1.69844e-009
Heightened Def Con from 1.70012e-009 to 1.76262e-009
Heightened Def Con from 1.7987e-009 to 1.80459e-009
Heightened Def Con from 1.80552e-009 to 1.80558e-009
Heightened Def Con from 1.80569e-009 to 1.80578e-009
Heightened Def Con from 1.80657e-009 to 1.83978e-009
Heightened Def Con from 1.89172e-009 to 2.01867e-009
Heightened Def Con from 2.0501e-009 to 2.0833e-009
Heightened Def Con from 2.11696e-009 to 2.13454e-009
Heightened Def Con from 2.17827e-009 to 2.17876e-009
Heightened Def Con from 2.19685e-009 to 2.23006e-009
Heightened Def Con from 2.27054e-009 to 2.39749e-009
Heightened Def Con from 2.4356e-009 to 4.45122e-009
Heightened Def Con from 4.62841e-009 to 4.6285e-009
Heightened Def Con from 4.6296e-009 to 4.64718e-009
Heightened Def Con from 4.65322e-009 to 4.65737e-009
Heightened Def Con from 4.65933e-009 to 4.66348e-009
Heightened Def Con from 4.66436e-009 to 4.66445e-009
Heightened Def Con from 4.66514e-009 to 4.67295e-009
Heightened Def Con from 4.6738e-009 to 4.6799e-009
Heightened Def Con from 4.68235e-009 to 4.69016e-009
Heightened Def Con from 4.69224e-009 to 4.70981e-009
Heightened Def Con from 4.71409e-009 to 4.71995e-009
Heightened Def Con from 4.72035e-009 to 4.73793e-009
Heightened Def Con from 4.75793e-009 to 4.76379e-009
Heightened Def Con from 4.77388e-009 to 6.7895e-009
Heightened Def Con from 6.81231e-009 to 6.84551e-009
Heightened Def Con from 6.8774e-009 to 6.89498e-009
Heightened Def Con from 6.90266e-009 to 6.91853e-009
Heightened Def Con from 6.91871e-009 to 7.92066e-009
Heightened Def Con from 7.92409e-009 to 7.92995e-009
Heightened Def Con from 7.9361e-009 to 7.94392e-009
Heightened Def Con from 7.96534e-009 to 7.97315e-009
Heightened Def Con from 7.97362e-009 to 7.97582e-009
Heightened Def Con from 7.97658e-009 to 8.00808e-009
Heightened Def Con from 8.00808e-009 to 8.01397e-009
Heightened Def Con from 8.01408e-009 to 8.0146e-009
Heightened Def Con from 8.01504e-009 to 8.01919e-009
Heightened Def Con from 8.02012e-009 to 8.02623e-009
Heightened Def Con from 8.0327e-009 to 8.05027e-009
Heightened Def Con from 8.07801e-009 to 8.09559e-009
Heightened Def Con from 8.10741e-009 to 8.11522e-009
Heightened Def Con from 8.12086e-009 to 9.13648e-009
Heightened Def Con from 9.16746e-009 to 9.17527e-009
Heightened Def Con from 9.18337e-009 to 9.19902e-009
Heightened Def Con from 9.19932e-009 to 9.20152e-009
Heightened Def Con from 9.21417e-009 to 9.21811e-009
Heightened Def Con from 9.22298e-009 to 9.22371e-009
Heightened Def Con from 9.22698e-009 to 9.2348e-009
Heightened Def Con from 9.23519e-009 to 9.23739e-009
Heightened Def Con from 9.25574e-009 to 9.26355e-009
Heightened Def Con from 9.3021e-009 to 9.3043e-009
Heightened Def Con from 9.32504e-009 to 9.33286e-009
Heightened Def Con from 9.39249e-009 to 9.39301e-009
Heightened Def Con from 9.40342e-009 to 9.41124e-009
Heightened Def Con from 9.43782e-009 to 9.4554e-009
Heightened Def Con from 9.46443e-009 to 9.47029e-009
Heightened Def Con from 9.49882e-009 to 9.5164e-009
Heightened Def Con from 9.55457e-009 to 9.57215e-009
Heightened Def Con from 9.6867e-009 to 9.6928e-009
Heightened Def Con from 9.85748e-009 to 9.90631e-009
Heightened Def Con from 9.9581e-009 to 1.0005e-008
Heightened Def Con from 1.00205e-008 to 1.00283e-008
Heightened Def Con from 1.00463e-008 to 1.0187e-008
Heightened Def Con from 1.02699e-008 to 1.03031e-008
Heightened Def Con from 1.03442e-008 to 1.03774e-008
Heightened Def Con from 1.04022e-008 to 1.04061e-008
Heightened Def Con from 1.04394e-008 to 1.04436e-008
Heightened Def Con from 1.04463e-008 to 1.04471e-008
Heightened Def Con from 1.04527e-008 to 1.05152e-008
Heightened Def Con from 1.05944e-008 to 1.05947e-008
Heightened Def Con from 1.0604e-008 to 1.06043e-008
Heightened Def Con from 1.06043e-008 to 1.06063e-008
Heightened Def Con from 1.06087e-008 to 1.06092e-008
Heightened Def Con from 1.06107e-008 to 1.07514e-008
Heightened Def Con from 1.08108e-008 to 1.08186e-008
Heightened Def Con from 1.08444e-008 to 1.08466e-008
Heightened Def Con from 1.08474e-008 to 1.08494e-008
Heightened Def Con from 1.08591e-008 to 1.08613e-008
Heightened Def Con from 1.08643e-008 to 1.08819e-008
Heightened Def Con from 1.09101e-008 to 1.09277e-008
Heightened Def Con from 1.09775e-008 to 1.09814e-008
Heightened Def Con from 1.10428e-008 to 1.10433e-008
Heightened Def Con from 1.10437e-008 to 1.10445e-008
Heightened Def Con from 1.10453e-008 to 1.10454e-008
Heightened Def Con from 1.10454e-008 to 1.10455e-008
Heightened Def Con from 1.10473e-008 to 1.10478e-008
Heightened Def Con from 1.10515e-008 to 1.10671e-008
Heightened Def Con from 1.10709e-008 to 1.20865e-008
Heightened Def Con from 1.2102e-008 to 1.21196e-008
Heightened Def Con from 1.21359e-008 to 1.21418e-008
Heightened Def Con from 1.21733e-008 to 1.22065e-008
Heightened Def Con from 1.22075e-008 to 1.22133e-008
Heightened Def Con from 1.22332e-008 to 1.22333e-008
Heightened Def Con from 1.22333e-008 to 1.23603e-008
Heightened Def Con from 1.23768e-008 to 1.23846e-008
Heightened Def Con from 1.23939e-008 to 1.23997e-008
Heightened Def Con from 1.24027e-008 to 1.34047e-008
Heightened Def Con from 1.34211e-008 to 1.34543e-008
Heightened Def Con from 1.34621e-008 to 1.34626e-008
Heightened Def Con from 1.34635e-008 to 1.34655e-008
Heightened Def Con from 1.34681e-008 to 1.447e-008
Heightened Def Con from 1.44714e-008 to 1.45046e-008
Heightened Def Con from 1.4544e-008 to 1.45482e-008
Heightened Def Con from 1.45537e-008 to 1.45615e-008
Heightened Def Con from 1.45757e-008 to 1.45933e-008
Heightened Def Con from 1.4602e-008 to 1.47426e-008
Heightened Def Con from 1.47805e-008 to 1.47883e-008
Heightened Def Con from 1.47903e-008 to 1.47944e-008
Heightened Def Con from 1.47944e-008 to 1.47945e-008
Heightened Def Con from 1.48013e-008 to 1.48345e-008
Heightened Def Con from 1.48682e-008 to 1.48724e-008
Heightened Def Con from 1.4888e-008 to 1.48902e-008
Heightened Def Con from 1.48907e-008 to 1.48966e-008
Heightened Def Con from 1.48972e-008 to 1.4903e-008
Heightened Def Con from 1.49145e-008 to 1.49152e-008
Heightened Def Con from 1.49152e-008 to 1.49174e-008
Heightened Def Con from 1.49238e-008 to 1.59258e-008
Heightened Def Con from 1.5934e-008 to 1.59348e-008
Heightened Def Con from 1.5941e-008 to 1.59425e-008
Heightened Def Con from 1.59438e-008 to 1.59555e-008
Heightened Def Con from 1.59571e-008 to 1.59769e-008
Heightened Def Con from 1.59769e-008 to 1.59847e-008
Heightened Def Con from 1.59915e-008 to 1.69934e-008
Heightened Def Con from 1.69977e-008 to 1.70055e-008
Heightened Def Con from 1.7006e-008 to 1.70236e-008
Heightened Def Con from 1.70636e-008 to 1.70795e-008
Heightened Def Con from 1.70798e-008 to 1.7082e-008
Heightened Def Con from 1.7085e-008 to 1.71026e-008
Heightened Def Con from 1.71122e-008 to 1.71132e-008
Heightened Def Con from 1.71205e-008 to 1.7138e-008
Heightened Def Con from 1.71416e-008 to 1.71438e-008
Heightened Def Con from 1.71624e-008 to 1.71683e-008
Heightened Def Con from 1.71806e-008 to 1.71962e-008
Heightened Def Con from 1.7198e-008 to 1.72312e-008
Heightened Def Con from 1.72389e-008 to 1.82545e-008
Heightened Def Con from 1.82685e-008 to 1.82744e-008
Heightened Def Con from 1.82868e-008 to 1.82875e-008
Heightened Def Con from 1.83099e-008 to 1.83141e-008
Heightened Def Con from 1.83146e-008 to 1.83305e-008
Heightened Def Con from 1.83439e-008 to 1.83517e-008
Heightened Def Con from 1.83528e-008 to 1.83704e-008
Heightened Def Con from 1.8379e-008 to 1.83791e-008
Heightened Def Con from 1.838e-008 to 1.83861e-008
Heightened Def Con from 1.83907e-008 to 1.83917e-008
Heightened Def Con from 1.83919e-008 to 1.84095e-008
Heightened Def Con from 1.84096e-008 to 1.84155e-008
Heightened Def Con from 1.84274e-008 to 1.84279e-008
Heightened Def Con from 1.84287e-008 to 1.84346e-008
Heightened Def Con from 1.84442e-008 to 1.84503e-008
Heightened Def Con from 1.84518e-008 to 1.84693e-008
Heightened Def Con from 1.84859e-008 to 1.84881e-008
Heightened Def Con from 1.84888e-008 to 1.84888e-008
Heightened Def Con from 1.84888e-008 to 1.84901e-008
Heightened Def Con from 1.84904e-008 to 1.84905e-008
Heightened Def Con from 1.84907e-008 to 1.85082e-008
Heightened Def Con from 1.85146e-008 to 1.85188e-008
Heightened Def Con from 1.85191e-008 to 1.85199e-008
Heightened Def Con from 1.85214e-008 to 1.85389e-008
Heightened Def Con from 1.85404e-008 to 1.85463e-008
Heightened Def Con from 1.86378e-008 to 1.86456e-008
Heightened Def Con from 1.86622e-008 to 1.86798e-008
Heightened Def Con from 1.86834e-008 to 1.96854e-008
Heightened Def Con from 1.96869e-008 to 1.97045e-008
Heightened Def Con from 1.97553e-008 to 1.97575e-008
Heightened Def Con from 1.97603e-008 to 1.9776e-008
Heightened Def Con from 1.97768e-008 to 1.9779e-008
Heightened Def Con from 1.97827e-008 to 1.97834e-008
Heightened Def Con from 1.97932e-008 to 1.97935e-008
Heightened Def Con from 1.97967e-008 to 1.98046e-008
Heightened Def Con from 1.98111e-008 to 2.0813e-008
Heightened Def Con from 2.08222e-008 to 2.08281e-008
Heightened Def Con from 2.08437e-008 to 2.08444e-008
Heightened Def Con from 2.08445e-008 to 2.08448e-008
Heightened Def Con from 2.08454e-008 to 2.08513e-008
Heightened Def Con from 2.0852e-008 to 2.08578e-008
Heightened Def Con from 2.08771e-008 to 2.09103e-008
Heightened Def Con from 2.09296e-008 to 2.09337e-008
Heightened Def Con from 2.09365e-008 to 2.09387e-008
Heightened Def Con from 2.09676e-008 to 2.09698e-008
Heightened Def Con from 2.09698e-008 to 2.09718e-008
Heightened Def Con from 2.09743e-008 to 2.19763e-008
Heightened Def Con from 2.19922e-008 to 2.20059e-008
Heightened Def Con from 2.20111e-008 to 2.20286e-008
Heightened Def Con from 2.20392e-008 to 2.20398e-008
Heightened Def Con from 2.20416e-008 to 2.20458e-008
Heightened Def Con from 2.20665e-008 to 2.20723e-008
Heightened Def Con from 2.20825e-008 to 2.20903e-008
Heightened Def Con from 2.21045e-008 to 2.21065e-008
Heightened Def Con from 2.21095e-008 to 2.31115e-008
Heightened Def Con from 2.31263e-008 to 2.31439e-008
Heightened Def Con from 2.31477e-008 to 2.3179e-008
Heightened Def Con from 2.3181e-008 to 2.32435e-008
Heightened Def Con from 2.32615e-008 to 2.32947e-008
Heightened Def Con from 2.33128e-008 to 2.33168e-008
Heightened Def Con from 2.33168e-008 to 2.33344e-008
Heightened Def Con from 2.33549e-008 to 2.33628e-008
Heightened Def Con from 2.33695e-008 to 2.337e-008
Heightened Def Con from 2.33745e-008 to 2.33803e-008
Heightened Def Con from 2.33806e-008 to 2.33865e-008
Heightened Def Con from 2.33865e-008 to 2.3404e-008
Heightened Def Con from 2.34064e-008 to 2.34086e-008
Heightened Def Con from 2.34187e-008 to 2.34265e-008
Heightened Def Con from 2.34352e-008 to 2.34374e-008
Heightened Def Con from 2.3438e-008 to 2.34438e-008
Heightened Def Con from 2.34538e-008 to 2.34714e-008
Heightened Def Con from 2.34856e-008 to 2.35031e-008
Heightened Def Con from 2.35178e-008 to 2.3522e-008
Heightened Def Con from 2.35284e-008 to 2.35343e-008
Heightened Def Con from 2.35405e-008 to 2.36674e-008
Heightened Def Con from 2.36789e-008 to 2.38041e-008
Heightened Def Con from 2.38106e-008 to 2.38164e-008
Heightened Def Con from 2.38289e-008 to 2.3833e-008
Heightened Def Con from 2.38451e-008 to 2.38459e-008
Heightened Def Con from 2.38809e-008 to 2.38829e-008
Heightened Def Con from 2.38911e-008 to 2.39379e-008
Heightened Def Con from 2.39607e-008 to 2.39666e-008
Heightened Def Con from 2.3974e-008 to 2.39899e-008
Heightened Def Con from 2.39945e-008 to 2.40004e-008
Heightened Def Con from 2.40065e-008 to 2.40104e-008
Heightened Def Con from 2.40117e-008 to 2.40118e-008
Heightened Def Con from 2.4014e-008 to 2.40198e-008
Heightened Def Con from 2.40457e-008 to 2.40515e-008
Heightened Def Con from 2.40549e-008 to 2.40588e-008
Heightened Def Con from 2.40907e-008 to 2.40948e-008
Heightened Def Con from 2.40953e-008 to 2.40992e-008
Heightened Def Con from 2.41108e-008 to 2.41421e-008
Heightened Def Con from 2.41516e-008 to 2.41691e-008
Heightened Def Con from 2.41921e-008 to 2.42253e-008
Heightened Def Con from 2.42253e-008 to 2.42275e-008
Heightened Def Con from 2.42412e-008 to 2.42727e-008
Heightened Def Con from 2.42809e-008 to 2.44078e-008
Heightened Def Con from 2.44085e-008 to 2.44144e-008
Heightened Def Con from 2.44187e-008 to 2.44499e-008
Heightened Def Con from 2.44648e-008 to 2.44726e-008
Heightened Def Con from 2.4479e-008 to 2.44793e-008
Heightened Def Con from 2.44811e-008 to 2.44833e-008
Heightened Def Con from 2.4494e-008 to 2.45565e-008
Heightened Def Con from 2.46331e-008 to 2.47737e-008
Heightened Def Con from 2.47737e-008 to 2.49143e-008
Heightened Def Con from 2.49351e-008 to 2.4951e-008
Heightened Def Con from 2.4956e-008 to 2.59716e-008
Heightened Def Con from 2.60069e-008 to 2.60228e-008
Heightened Def Con from 2.60269e-008 to 2.60277e-008
Heightened Def Con from 2.60347e-008 to 2.60405e-008
Heightened Def Con from 2.60527e-008 to 2.60995e-008
Heightened Def Con from 2.61075e-008 to 2.61251e-008
Heightened Def Con from 2.61523e-008 to 2.62148e-008
Heightened Def Con from 2.62227e-008 to 2.62559e-008
Heightened Def Con from 2.62997e-008 to 2.63036e-008
Heightened Def Con from 2.63591e-008 to 2.63649e-008
Heightened Def Con from 2.6386e-008 to 2.64035e-008
Heightened Def Con from 2.64123e-008 to 2.64201e-008
Heightened Def Con from 2.64509e-008 to 2.64685e-008
Heightened Def Con from 2.64853e-008 to 2.64912e-008
Heightened Def Con from 2.65047e-008 to 2.65222e-008
Heightened Def Con from 2.65389e-008 to 2.65448e-008
Heightened Def Con from 2.65616e-008 to 2.65674e-008
Heightened Def Con from 2.6616e-008 to 2.66336e-008
Heightened Def Con from 2.6637e-008 to 2.66372e-008
Heightened Def Con from 2.66458e-008 to 2.66478e-008
Heightened Def Con from 2.66498e-008 to 2.66537e-008
Heightened Def Con from 2.66618e-008 to 2.66793e-008
Heightened Def Con from 2.67499e-008 to 2.67506e-008
Heightened Def Con from 2.67613e-008 to 2.67789e-008
Heightened Def Con from 2.68066e-008 to 2.68066e-008
Heightened Def Con from 2.68066e-008 to 2.68108e-008
Heightened Def Con from 2.68144e-008 to 2.68203e-008
Heightened Def Con from 2.68267e-008 to 2.68326e-008
Heightened Def Con from 2.68367e-008 to 2.68425e-008
Heightened Def Con from 2.68648e-008 to 2.68807e-008
Heightened Def Con from 2.69599e-008 to 2.69658e-008
Heightened Def Con from 2.69994e-008 to 2.70016e-008
Heightened Def Con from 2.70074e-008 to 2.70096e-008
Heightened Def Con from 2.70253e-008 to 2.70585e-008
Heightened Def Con from 2.70645e-008 to 2.70645e-008
Heightened Def Con from 2.70652e-008 to 2.80671e-008
Heightened Def Con from 2.80986e-008 to 2.81044e-008
Heightened Def Con from 2.81101e-008 to 2.81143e-008
Heightened Def Con from 2.81181e-008 to 2.81203e-008
Heightened Def Con from 2.81231e-008 to 2.8129e-008
Heightened Def Con from 2.81302e-008 to 2.81307e-008
Heightened Def Con from 2.81418e-008 to 2.81418e-008
Heightened Def Con from 2.81422e-008 to 2.81597e-008
Heightened Def Con from 2.81863e-008 to 2.81868e-008
Heightened Def Con from 2.82002e-008 to 2.82043e-008
Heightened Def Con from 2.82094e-008 to 2.82426e-008
Heightened Def Con from 2.82553e-008 to 2.83959e-008
Heightened Def Con from 2.85902e-008 to 2.87308e-008
Heightened Def Con from 2.88355e-008 to 2.8836e-008
Heightened Def Con from 2.88378e-008 to 2.89784e-008
Heightened Def Con from 2.89836e-008 to 2.90012e-008
Heightened Def Con from 2.90288e-008 to 2.90347e-008
Heightened Def Con from 2.9035e-008 to 2.90372e-008
Heightened Def Con from 2.9041e-008 to 2.90722e-008
Heightened Def Con from 2.90723e-008 to 2.91192e-008
Heightened Def Con from 2.91475e-008 to 2.91553e-008
Heightened Def Con from 2.91715e-008 to 2.91754e-008
Heightened Def Con from 2.91754e-008 to 2.92067e-008
Heightened Def Con from 2.92697e-008 to 2.92698e-008
Heightened Def Con from 2.92763e-008 to 2.92804e-008
Heightened Def Con from 2.92886e-008 to 2.92891e-008
Heightened Def Con from 2.92941e-008 to 2.93116e-008
Heightened Def Con from 2.94146e-008 to 2.94322e-008
Heightened Def Con from 2.95111e-008 to 2.95736e-008
Heightened Def Con from 2.96081e-008 to 2.96082e-008
Heightened Def Con from 2.96106e-008 to 2.96164e-008
Heightened Def Con from 2.96804e-008 to 2.96826e-008
Heightened Def Con from 2.96835e-008 to 2.96857e-008
Heightened Def Con from 2.9689e-008 to 2.97066e-008
Heightened Def Con from 2.97211e-008 to 2.97387e-008
Heightened Def Con from 2.97655e-008 to 2.97713e-008
Heightened Def Con from 2.97714e-008 to 2.97715e-008
Heightened Def Con from 2.97741e-008 to 2.979e-008
Heightened Def Con from 2.97934e-008 to 2.97956e-008
Heightened Def Con from 2.98037e-008 to 2.98045e-008
Heightened Def Con from 2.98109e-008 to 2.98114e-008
Heightened Def Con from 2.98218e-008 to 2.98279e-008
Heightened Def Con from 2.98293e-008 to 2.98335e-008
Heightened Def Con from 2.98363e-008 to 3.08382e-008
Heightened Def Con from 3.08432e-008 to 3.08471e-008
Heightened Def Con from 3.08501e-008 to 3.0856e-008
Heightened Def Con from 3.09397e-008 to 3.09438e-008
Heightened Def Con from 3.09528e-008 to 3.09548e-008
Heightened Def Con from 3.09559e-008 to 3.09564e-008
Heightened Def Con from 3.09589e-008 to 3.09747e-008
Heightened Def Con from 3.09802e-008 to 3.09961e-008
Heightened Def Con from 3.10022e-008 to 3.1008e-008
Heightened Def Con from 3.10213e-008 to 3.10254e-008
Heightened Def Con from 3.10482e-008 to 3.10638e-008
Heightened Def Con from 3.10647e-008 to 3.10725e-008
Heightened Def Con from 3.10814e-008 to 3.2097e-008
Heightened Def Con from 3.21708e-008 to 3.21767e-008
Heightened Def Con from 3.22021e-008 to 3.22026e-008
Heightened Def Con from 3.2203e-008 to 3.23437e-008
Heightened Def Con from 3.23463e-008 to 3.23504e-008
Heightened Def Con from 3.23582e-008 to 3.24852e-008
Heightened Def Con from 3.25003e-008 to 3.25025e-008
Heightened Def Con from 3.25155e-008 to 3.25213e-008
Heightened Def Con from 3.25683e-008 to 3.25684e-008
Heightened Def Con from 3.25693e-008 to 3.25693e-008
Heightened Def Con from 3.25744e-008 to 3.25766e-008
Heightened Def Con from 3.25782e-008 to 3.35938e-008
Heightened Def Con from 3.3646e-008 to 3.36619e-008
Heightened Def Con from 3.36738e-008 to 3.36777e-008
Heightened Def Con from 3.36811e-008 to 3.36987e-008
Heightened Def Con from 3.37193e-008 to 3.37662e-008
Heightened Def Con from 3.37904e-008 to 3.3806e-008
Heightened Def Con from 3.38063e-008 to 3.38071e-008
Heightened Def Con from 3.38109e-008 to 3.38734e-008
Heightened Def Con from 3.38786e-008 to 3.38845e-008
Heightened Def Con from 3.38882e-008 to 3.38921e-008
Heightened Def Con from 3.38977e-008 to 3.39016e-008
Heightened Def Con from 3.39066e-008 to 3.39067e-008
Heightened Def Con from 3.3907e-008 to 3.49089e-008
Heightened Def Con from 3.49252e-008 to 3.49274e-008
Heightened Def Con from 3.49526e-008 to 3.49531e-008
Heightened Def Con from 3.49654e-008 to 3.49712e-008
Heightened Def Con from 3.5065e-008 to 3.50826e-008
Heightened Def Con from 3.50826e-008 to 3.51002e-008
Heightened Def Con from 3.5101e-008 to 3.51088e-008
Heightened Def Con from 3.5128e-008 to 3.51281e-008
Heightened Def Con from 3.51318e-008 to 3.5134e-008
Heightened Def Con from 3.51505e-008 to 3.5182e-008
Heightened Def Con from 3.51861e-008 to 3.52037e-008
Heightened Def Con from 3.52172e-008 to 3.52175e-008
Heightened Def Con from 3.522e-008 to 3.52376e-008
Heightened Def Con from 3.52517e-008 to 3.52559e-008
Heightened Def Con from 3.52613e-008 to 3.52671e-008
Heightened Def Con from 3.52806e-008 to 3.52865e-008
Heightened Def Con from 3.52866e-008 to 3.52888e-008
Heightened Def Con from 3.52935e-008 to 3.52957e-008
Heightened Def Con from 3.52993e-008 to 3.53e-008
Heightened Def Con from 3.53002e-008 to 3.5306e-008
Heightened Def Con from 3.53127e-008 to 3.53286e-008
Heightened Def Con from 3.53286e-008 to 3.53443e-008
Heightened Def Con from 3.53557e-008 to 3.53577e-008
Heightened Def Con from 3.53578e-008 to 3.63578e-008
Heightened Def Con from 3.63616e-008 to 3.64087e-008
Heightened Def Con from 3.64202e-008 to 3.64205e-008
Heightened Def Con from 3.64245e-008 to 3.6425e-008
Heightened Def Con from 3.64252e-008 to 3.65659e-008
Heightened Def Con from 3.66133e-008 to 3.66309e-008
Heightened Def Con from 3.67391e-008 to 3.6755e-008
Heightened Def Con from 3.67617e-008 to 3.67792e-008
Heightened Def Con from 3.67911e-008 to 3.6807e-008
Heightened Def Con from 3.68132e-008 to 3.68171e-008
Heightened Def Con from 3.68247e-008 to 3.68248e-008
Heightened Def Con from 3.68248e-008 to 3.6858e-008
Heightened Def Con from 3.68595e-008 to 3.69064e-008
Heightened Def Con from 3.69346e-008 to 3.69424e-008
Heightened Def Con from 3.6949e-008 to 3.70759e-008
Heightened Def Con from 3.70809e-008 to 3.70965e-008
Heightened Def Con from 3.71322e-008 to 3.81322e-008
Heightened Def Con from 3.81322e-008 to 3.81323e-008
Heightened Def Con from 3.81373e-008 to 3.91529e-008
Heightened Def Con from 3.91555e-008 to 3.91712e-008
Heightened Def Con from 3.91758e-008 to 3.92247e-008
Heightened Def Con from 3.92564e-008 to 3.92723e-008
Heightened Def Con from 3.92728e-008 to 3.94134e-008
Heightened Def Con from 3.9418e-008 to 3.942e-008
Heightened Def Con from 3.942e-008 to 3.94258e-008
Heightened Def Con from 3.94282e-008 to 3.94614e-008
Heightened Def Con from 3.94802e-008 to 3.94978e-008
Heightened Def Con from 3.95017e-008 to 3.9502e-008
Heightened Def Con from 3.95031e-008 to 3.95207e-008
Heightened Def Con from 3.9687e-008 to 3.97183e-008
Heightened Def Con from 3.97288e-008 to 3.97444e-008
Heightened Def Con from 3.97504e-008 to 3.97817e-008
Heightened Def Con from 3.97956e-008 to 3.98034e-008
Heightened Def Con from 3.98187e-008 to 3.98656e-008
Heightened Def Con from 3.98748e-008 to 3.98751e-008
Heightened Def Con from 3.98783e-008 to 3.99115e-008
Heightened Def Con from 3.99247e-008 to 3.99403e-008
Heightened Def Con from 3.99419e-008 to 3.99732e-008
Heightened Def Con from 3.99776e-008 to 4.01046e-008
Heightened Def Con from 4.01456e-008 to 4.01461e-008
Heightened Def Con from 4.01461e-008 to 4.01464e-008
Heightened Def Con from 4.01647e-008 to 4.01686e-008
Heightened Def Con from 4.0193e-008 to 4.02106e-008
Heightened Def Con from 4.02277e-008 to 4.02453e-008
Heightened Def Con from 4.02745e-008 to 4.22902e-008
Heightened Def Con from 4.22954e-008 to 4.23267e-008
Heightened Def Con from 4.23283e-008 to 4.23908e-008
Heightened Def Con from 4.24057e-008 to 4.24116e-008
Heightened Def Con from 4.2418e-008 to 4.24202e-008
Heightened Def Con from 4.24206e-008 to 4.24285e-008
Heightened Def Con from 4.24348e-008 to 4.24524e-008
Heightened Def Con from 4.24621e-008 to 4.24622e-008
Heightened Def Con from 4.24746e-008 to 4.24903e-008
Heightened Def Con from 4.24903e-008 to 4.25235e-008
Heightened Def Con from 4.25275e-008 to 4.26544e-008
Heightened Def Con from 4.26586e-008 to 4.26899e-008
Heightened Def Con from 4.26926e-008 to 4.26948e-008
Heightened Def Con from 4.2699e-008 to 4.26995e-008
Heightened Def Con from 4.27043e-008 to 4.27049e-008
Heightened Def Con from 4.27079e-008 to 4.27255e-008
Heightened Def Con from 4.27432e-008 to 4.2749e-008
Heightened Def Con from 4.27831e-008 to 4.27853e-008
Heightened Def Con from 4.27883e-008 to 4.29153e-008
Heightened Def Con from 4.29217e-008 to 4.29239e-008
Heightened Def Con from 4.29252e-008 to 4.30505e-008
Heightened Def Con from 4.30574e-008 to 4.30889e-008
Heightened Def Con from 4.3101e-008 to 4.31088e-008
Heightened Def Con from 4.31665e-008 to 4.32134e-008
Heightened Def Con from 4.32198e-008 to 4.32357e-008
Heightened Def Con from 4.32527e-008 to 4.42547e-008
Heightened Def Con from 4.4259e-008 to 4.42591e-008
Heightened Def Con from 4.42592e-008 to 4.4267e-008
Heightened Def Con from 4.43537e-008 to 4.43544e-008
Heightened Def Con from 4.43675e-008 to 4.43697e-008
Heightened Def Con from 4.43713e-008 to 4.43772e-008
Heightened Def Con from 4.43933e-008 to 4.45185e-008
Heightened Def Con from 4.45232e-008 to 4.65235e-008
Heightened Def Con from 4.65539e-008 to 4.65598e-008
Heightened Def Con from 4.65637e-008 to 4.65698e-008
Heightened Def Con from 4.65838e-008 to 4.65916e-008
Heightened Def Con from 4.66249e-008 to 4.66307e-008
Heightened Def Con from 4.66389e-008 to 4.6645e-008
Heightened Def Con from 4.66602e-008 to 4.6668e-008
Heightened Def Con from 4.66868e-008 to 4.66927e-008
Heightened Def Con from 4.67074e-008 to 4.67386e-008
Heightened Def Con from 4.67647e-008 to 4.67669e-008
Heightened Def Con from 4.67733e-008 to 4.67892e-008
Heightened Def Con from 4.67997e-008 to 4.68173e-008
Heightened Def Con from 4.68416e-008 to 4.68592e-008
Heightened Def Con from 4.68665e-008 to 4.68678e-008
Heightened Def Con from 4.68708e-008 to 4.68805e-008
Heightened Def Con from 4.68817e-008 to 4.68993e-008
Heightened Def Con from 4.69123e-008 to 4.69298e-008
Heightened Def Con from 4.69399e-008 to 4.69421e-008
Heightened Def Con from 4.69427e-008 to 4.69449e-008
Heightened Def Con from 4.69474e-008 to 4.69963e-008
Heightened Def Con from 4.70103e-008 to 4.70125e-008
Heightened Def Con from 4.70253e-008 to 4.70429e-008
Heightened Def Con from 4.71354e-008 to 4.71979e-008
Heightened Def Con from 4.72564e-008 to 4.72662e-008
Heightened Def Con from 4.72669e-008 to 4.73001e-008
Heightened Def Con from 4.73203e-008 to 4.7332e-008
Heightened Def Con from 4.7334e-008 to 4.73515e-008
Heightened Def Con from 4.73583e-008 to 4.73624e-008
Heightened Def Con from 4.73711e-008 to 4.73789e-008
Heightened Def Con from 4.74338e-008 to 4.74397e-008
Heightened Def Con from 4.74535e-008 to 4.84554e-008
Heightened Def Con from 4.84722e-008 to 4.84898e-008
Heightened Def Con from 4.8505e-008 to 4.85675e-008
Heightened Def Con from 4.85732e-008 to 4.85908e-008
Heightened Def Con from 4.86209e-008 to 4.86251e-008
Heightened Def Con from 4.86266e-008 to 4.86288e-008
Heightened Def Con from 4.86311e-008 to 4.8637e-008
Heightened Def Con from 4.86516e-008 to 4.86521e-008
Heightened Def Con from 4.86521e-008 to 4.86524e-008
Heightened Def Con from 4.86548e-008 to 4.86724e-008
Heightened Def Con from 4.8678e-008 to 4.86936e-008
Heightened Def Con from 4.86976e-008 to 4.86979e-008
Heightened Def Con from 4.8698e-008 to 4.87295e-008
Heightened Def Con from 4.8741e-008 to 4.87417e-008
Heightened Def Con from 4.8742e-008 to 4.87461e-008
Heightened Def Con from 4.87472e-008 to 4.8755e-008
Heightened Def Con from 4.87679e-008 to 4.87855e-008
Heightened Def Con from 4.87857e-008 to 4.88189e-008
Heightened Def Con from 4.88206e-008 to 4.88248e-008
Heightened Def Con from 4.8828e-008 to 4.88358e-008
Heightened Def Con from 4.89032e-008 to 4.89191e-008
Heightened Def Con from 4.89204e-008 to 4.8938e-008
Heightened Def Con from 4.89538e-008 to 4.89713e-008
Heightened Def Con from 4.89815e-008 to 4.8982e-008
Heightened Def Con from 4.89894e-008 to 4.90069e-008
Heightened Def Con from 4.90404e-008 to 5.0056e-008
Heightened Def Con from 5.00654e-008 to 5.00967e-008
Heightened Def Con from 5.00976e-008 to 5.01035e-008
Heightened Def Con from 5.01128e-008 to 5.01228e-008
Heightened Def Con from 5.01278e-008 to 5.01319e-008
Heightened Def Con from 5.01413e-008 to 5.01455e-008
Heightened Def Con from 5.01691e-008 to 5.01789e-008
Heightened Def Con from 5.01789e-008 to 5.01965e-008
Heightened Def Con from 5.01969e-008 to 5.01981e-008
Heightened Def Con from 5.02003e-008 to 5.02011e-008
Heightened Def Con from 5.02106e-008 to 5.02128e-008
Heightened Def Con from 5.02135e-008 to 5.02194e-008
Heightened Def Con from 5.02195e-008 to 5.02354e-008
Heightened Def Con from 5.02445e-008 to 5.0276e-008
Heightened Def Con from 5.02786e-008 to 5.02864e-008
Heightened Def Con from 5.03105e-008 to 5.03281e-008
Heightened Def Con from 5.03284e-008 to 5.0346e-008
Heightened Def Con from 5.03507e-008 to 5.03683e-008
Heightened Def Con from 5.04354e-008 to 5.04412e-008
Heightened Def Con from 5.04621e-008 to 5.04663e-008
Heightened Def Con from 5.04808e-008 to 5.04966e-008
Heightened Def Con from 5.05012e-008 to 5.05071e-008
Heightened Def Con from 5.05125e-008 to 5.05301e-008
Heightened Def Con from 5.05341e-008 to 5.05673e-008
Heightened Def Con from 5.06309e-008 to 5.06468e-008
Heightened Def Con from 5.06483e-008 to 5.06502e-008
Heightened Def Con from 5.06531e-008 to 5.0669e-008
Heightened Def Con from 5.06701e-008 to 5.06701e-008
Heightened Def Con from 5.06701e-008 to 5.06877e-008
Heightened Def Con from 5.06996e-008 to 5.07006e-008
Heightened Def Con from 5.07059e-008 to 5.07684e-008
Heightened Def Con from 5.09009e-008 to 5.09341e-008
Heightened Def Con from 5.09342e-008 to 5.09501e-008
Heightened Def Con from 5.09612e-008 to 5.09927e-008
Heightened Def Con from 5.10008e-008 to 5.10477e-008
Heightened Def Con from 5.10529e-008 to 5.10607e-008
Heightened Def Con from 5.1069e-008 to 5.20846e-008
Heightened Def Con from 5.21012e-008 to 5.21188e-008
Heightened Def Con from 5.21537e-008 to 5.21538e-008
Heightened Def Con from 5.21541e-008 to 5.21873e-008
Heightened Def Con from 5.21923e-008 to 5.21933e-008
Heightened Def Con from 5.21955e-008 to 5.21975e-008
Heightened Def Con from 5.2201e-008 to 5.22069e-008
Heightened Def Con from 5.22179e-008 to 5.22257e-008
Heightened Def Con from 5.22518e-008 to 5.22557e-008
Heightened Def Con from 5.22566e-008 to 5.22573e-008
Heightened Def Con from 5.22573e-008 to 5.22732e-008
Heightened Def Con from 5.22806e-008 to 5.22828e-008
Heightened Def Con from 5.22833e-008 to 5.22911e-008
Heightened Def Con from 5.2306e-008 to 5.23119e-008
Heightened Def Con from 5.23224e-008 to 5.23246e-008
Heightened Def Con from 5.23321e-008 to 5.2334e-008
Heightened Def Con from 5.23427e-008 to 5.23486e-008
Heightened Def Con from 5.23589e-008 to 5.23902e-008
Heightened Def Con from 5.2395e-008 to 5.23992e-008
Heightened Def Con from 5.23992e-008 to 5.2405e-008
Heightened Def Con from 5.24241e-008 to 5.24299e-008
Heightened Def Con from 5.24309e-008 to 5.24485e-008
Heightened Def Con from 5.25432e-008 to 5.25901e-008
Heightened Def Con from 5.26163e-008 to 5.27432e-008
Heightened Def Con from 5.27678e-008 to 5.277e-008
Heightened Def Con from 5.27796e-008 to 5.27972e-008
Heightened Def Con from 5.28274e-008 to 5.2845e-008
Heightened Def Con from 5.2847e-008 to 5.3972e-008
Heightened Def Con from 5.39998e-008 to 5.40174e-008
Heightened Def Con from 5.40251e-008 to 5.40309e-008
Heightened Def Con from 5.40455e-008 to 5.40513e-008
Heightened Def Con from 5.40788e-008 to 5.40964e-008
Heightened Def Con from 5.41655e-008 to 5.41831e-008
Heightened Def Con from 5.42078e-008 to 5.42547e-008
Heightened Def Con from 5.42571e-008 to 5.42649e-008
Heightened Def Con from 5.42893e-008 to 5.43069e-008
Heightened Def Con from 5.44767e-008 to 5.44789e-008
Heightened Def Con from 5.44793e-008 to 5.54813e-008
Heightened Def Con from 5.54956e-008 to 5.54958e-008
Heightened Def Con from 5.55051e-008 to 5.55091e-008
Heightened Def Con from 5.55196e-008 to 5.56465e-008
Heightened Def Con from 5.56509e-008 to 5.56531e-008
Heightened Def Con from 5.56591e-008 to 5.56923e-008
Heightened Def Con from 5.56952e-008 to 5.56953e-008
Heightened Def Con from 5.56975e-008 to 5.57033e-008
Heightened Def Con from 5.57112e-008 to 5.5717e-008
Heightened Def Con from 5.57312e-008 to 5.57781e-008
Heightened Def Con from 5.58018e-008 to 5.58194e-008
Heightened Def Con from 5.58251e-008 to 5.58273e-008
Heightened Def Con from 5.58314e-008 to 5.68334e-008
Heightened Def Con from 5.68364e-008 to 5.68425e-008
Heightened Def Con from 5.68476e-008 to 5.68515e-008
Heightened Def Con from 5.68553e-008 to 5.68572e-008
Heightened Def Con from 5.68602e-008 to 5.68934e-008
Heightened Def Con from 5.69006e-008 to 5.69065e-008
Heightened Def Con from 5.69099e-008 to 5.69119e-008
Heightened Def Con from 5.69232e-008 to 5.69232e-008
Heightened Def Con from 5.69232e-008 to 5.69272e-008
Heightened Def Con from 5.69272e-008 to 5.69314e-008
Heightened Def Con from 5.6952e-008 to 5.69579e-008
Heightened Def Con from 5.69579e-008 to 5.69638e-008
Heightened Def Con from 5.69756e-008 to 5.70088e-008
Heightened Def Con from 5.70273e-008 to 5.70331e-008
Heightened Def Con from 5.70348e-008 to 5.70523e-008
Heightened Def Con from 5.70886e-008 to 5.71043e-008
Heightened Def Con from 5.7119e-008 to 5.71197e-008
Heightened Def Con from 5.71216e-008 to 5.71375e-008
Heightened Def Con from 5.71499e-008 to 5.71557e-008
Heightened Def Con from 5.71599e-008 to 5.72068e-008
Heightened Def Con from 5.72542e-008 to 5.72549e-008
Heightened Def Con from 5.72567e-008 to 5.72568e-008
Heightened Def Con from 5.72609e-008 to 5.72765e-008
Heightened Def Con from 5.72765e-008 to 5.72941e-008
Heightened Def Con from 5.72952e-008 to 5.73109e-008
Heightened Def Con from 5.73174e-008 to 5.73213e-008
Heightened Def Con from 5.73288e-008 to 5.73447e-008
Heightened Def Con from 5.73485e-008 to 5.73507e-008
Heightened Def Con from 5.73598e-008 to 5.7393e-008
Heightened Def Con from 5.74189e-008 to 5.74196e-008
Heightened Def Con from 5.74275e-008 to 5.74297e-008
Heightened Def Con from 5.7436e-008 to 5.75629e-008
Heightened Def Con from 5.75947e-008 to 5.76123e-008
Heightened Def Con from 5.7637e-008 to 5.7889e-008
Heightened Def Con from 5.79008e-008 to 5.79184e-008
Heightened Def Con from 5.80071e-008 to 5.81341e-008
Heightened Def Con from 5.81395e-008 to 5.91415e-008
Heightened Def Con from 5.9157e-008 to 5.91902e-008
Heightened Def Con from 5.91986e-008 to 5.92045e-008
Heightened Def Con from 5.92112e-008 to 5.92171e-008
Heightened Def Con from 5.92458e-008 to 5.9279e-008
Heightened Def Con from 5.94534e-008 to 6.04691e-008
Heightened Def Con from 6.0504e-008 to 6.05099e-008
Heightened Def Con from 6.05111e-008 to 6.05269e-008
Heightened Def Con from 6.0547e-008 to 6.05548e-008
Heightened Def Con from 6.0559e-008 to 6.05668e-008
Heightened Def Con from 6.05719e-008 to 6.05895e-008
Heightened Def Con from 6.05932e-008 to 6.06108e-008
Heightened Def Con from 6.06166e-008 to 6.06185e-008
Heightened Def Con from 6.06196e-008 to 6.06274e-008
Heightened Def Con from 6.06527e-008 to 6.06859e-008
Heightened Def Con from 6.069e-008 to 6.06998e-008
Heightened Def Con from 6.07003e-008 to 6.07015e-008
Heightened Def Con from 6.07022e-008 to 6.07159e-008
Heightened Def Con from 6.0717e-008 to 6.07229e-008
Heightened Def Con from 6.07247e-008 to 6.07254e-008
Heightened Def Con from 6.0731e-008 to 6.07798e-008
Heightened Def Con from 6.0784e-008 to 6.07862e-008
Heightened Def Con from 6.08168e-008 to 6.085e-008
Heightened Def Con from 6.08649e-008 to 6.08656e-008
Heightened Def Con from 6.08684e-008 to 6.08726e-008
Heightened Def Con from 6.08886e-008 to 6.08908e-008
Heightened Def Con from 6.08971e-008 to 6.09049e-008
Heightened Def Con from 6.09055e-008 to 6.09231e-008
Heightened Def Con from 6.09325e-008 to 6.09347e-008
Heightened Def Con from 6.09438e-008 to 6.09613e-008
Heightened Def Con from 6.09614e-008 to 6.09789e-008
Heightened Def Con from 6.09947e-008 to 6.10008e-008
Heightened Def Con from 6.10016e-008 to 6.10077e-008
Heightened Def Con from 6.10094e-008 to 6.10097e-008
Heightened Def Con from 6.10135e-008 to 6.10213e-008
Heightened Def Con from 6.1036e-008 to 6.10519e-008
Heightened Def Con from 6.10789e-008 to 6.1079e-008
Heightened Def Con from 6.10799e-008 to 6.10841e-008
Heightened Def Con from 6.10879e-008 to 6.10957e-008
Heightened Def Con from 6.10981e-008 to 6.10988e-008
Heightened Def Con from 6.11006e-008 to 6.11631e-008
Heightened Def Con from 6.11642e-008 to 6.117e-008
Heightened Def Con from 6.11898e-008 to 6.12074e-008
Heightened Def Con from 6.12101e-008 to 6.12159e-008
Heightened Def Con from 6.1217e-008 to 6.12248e-008
Heightened Def Con from 6.12562e-008 to 6.12621e-008
Heightened Def Con from 6.1263e-008 to 6.12642e-008
Heightened Def Con from 6.12674e-008 to 6.12833e-008
Heightened Def Con from 6.12855e-008 to 6.12863e-008
Heightened Def Con from 6.12869e-008 to 6.13045e-008
Heightened Def Con from 6.13061e-008 to 6.13103e-008
Heightened Def Con from 6.1318e-008 to 6.13185e-008
Heightened Def Con from 6.13209e-008 to 6.13251e-008
Heightened Def Con from 6.13307e-008 to 6.13639e-008
Heightened Def Con from 6.13734e-008 to 6.1514e-008
Heightened Def Con from 6.15335e-008 to 6.15413e-008
Heightened Def Con from 6.15504e-008 to 6.15662e-008
Heightened Def Con from 6.1569e-008 to 6.16022e-008
Heightened Def Con from 6.1626e-008 to 6.16319e-008
Heightened Def Con from 6.16326e-008 to 6.16385e-008
Heightened Def Con from 6.16504e-008 to 6.16526e-008
Heightened Def Con from 6.16581e-008 to 6.16603e-008
Heightened Def Con from 6.16631e-008 to 6.17276e-008
Heightened Def Con from 6.17378e-008 to 6.17386e-008
Heightened Def Con from 6.17386e-008 to 6.17393e-008
Heightened Def Con from 6.17395e-008 to 6.17512e-008
Heightened Def Con from 6.17537e-008 to 6.17545e-008
Heightened Def Con from 6.17578e-008 to 6.1762e-008
Heightened Def Con from 6.17649e-008 to 6.17727e-008
Heightened Def Con from 6.17788e-008 to 6.1781e-008
Heightened Def Con from 6.17819e-008 to 6.17995e-008
Heightened Def Con from 6.182e-008 to 6.18359e-008
Heightened Def Con from 6.18374e-008 to 6.18415e-008
Heightened Def Con from 6.18486e-008 to 6.18564e-008
Heightened Def Con from 6.18639e-008 to 6.18717e-008
Heightened Def Con from 6.18718e-008 to 6.18893e-008
Heightened Def Con from 6.19156e-008 to 6.19214e-008
Heightened Def Con from 6.19244e-008 to 6.19576e-008
Heightened Def Con from 6.19703e-008 to 6.20328e-008
Heightened Def Con from 6.20615e-008 to 6.2079e-008
Heightened Def Con from 6.20829e-008 to 6.2083e-008
Heightened Def Con from 6.20831e-008 to 6.2085e-008
Heightened Def Con from 6.20857e-008 to 6.20897e-008
Heightened Def Con from 6.20899e-008 to 6.30919e-008
Heightened Def Con from 6.31011e-008 to 6.31018e-008
Heightened Def Con from 6.31082e-008 to 6.31083e-008
Heightened Def Con from 6.31083e-008 to 6.31239e-008
Heightened Def Con from 6.31245e-008 to 6.31267e-008
Heightened Def Con from 6.31282e-008 to 6.31343e-008
Heightened Def Con from 6.31355e-008 to 6.31531e-008
Heightened Def Con from 6.31879e-008 to 6.32055e-008
Heightened Def Con from 6.32079e-008 to 6.32099e-008
Heightened Def Con from 6.3215e-008 to 6.32326e-008
Heightened Def Con from 6.32329e-008 to 6.32504e-008
Heightened Def Con from 6.32597e-008 to 6.32929e-008
Heightened Def Con from 6.33111e-008 to 6.33189e-008
Heightened Def Con from 6.33202e-008 to 6.43358e-008
Heightened Def Con from 6.43434e-008 to 6.43473e-008
Heightened Def Con from 6.43497e-008 to 6.43536e-008
Heightened Def Con from 6.43543e-008 to 6.43621e-008
Heightened Def Con from 6.4407e-008 to 6.44246e-008
Heightened Def Con from 6.44517e-008 to 6.44578e-008
Heightened Def Con from 6.44592e-008 to 6.44751e-008
Heightened Def Con from 6.44764e-008 to 6.44786e-008
Heightened Def Con from 6.44813e-008 to 6.44828e-008
Heightened Def Con from 6.4483e-008 to 6.44852e-008
Heightened Def Con from 6.4486e-008 to 6.44865e-008
Heightened Def Con from 6.44871e-008 to 6.45027e-008
Heightened Def Con from 6.4503e-008 to 6.45071e-008
Heightened Def Con from 6.45132e-008 to 6.45144e-008
Heightened Def Con from 6.45155e-008 to 6.45163e-008
Heightened Def Con from 6.45165e-008 to 6.45224e-008
Heightened Def Con from 6.45611e-008 to 6.55767e-008
Heightened Def Con from 6.55999e-008 to 6.56007e-008
Heightened Def Con from 6.56008e-008 to 6.5603e-008
Heightened Def Con from 6.56063e-008 to 6.56239e-008
Heightened Def Con from 6.56241e-008 to 6.56417e-008
Heightened Def Con from 6.56633e-008 to 6.56809e-008
Heightened Def Con from 6.57173e-008 to 6.57349e-008
Heightened Def Con from 6.57443e-008 to 6.57619e-008
Heightened Def Con from 6.57664e-008 to 6.57742e-008
Heightened Def Con from 6.58201e-008 to 6.58377e-008
Heightened Def Con from 6.58444e-008 to 6.58445e-008
Heightened Def Con from 6.58553e-008 to 6.58561e-008
Heightened Def Con from 6.58614e-008 to 6.58619e-008
Heightened Def Con from 6.58622e-008 to 6.5868e-008
Heightened Def Con from 6.59323e-008 to 6.59345e-008
Heightened Def Con from 6.59358e-008 to 6.594e-008
Heightened Def Con from 6.59514e-008 to 6.59553e-008
Heightened Def Con from 6.59611e-008 to 6.59689e-008
Heightened Def Con from 6.59854e-008 to 6.61106e-008
Heightened Def Con from 6.61121e-008 to 6.61128e-008
Heightened Def Con from 6.61167e-008 to 6.61245e-008
Heightened Def Con from 6.61269e-008 to 6.61274e-008
Heightened Def Con from 6.61278e-008 to 6.61337e-008
Heightened Def Con from 6.61338e-008 to 6.6136e-008
Heightened Def Con from 6.61531e-008 to 6.61536e-008
Heightened Def Con from 6.61581e-008 to 6.61594e-008
Heightened Def Con from 6.616e-008 to 6.61661e-008
Heightened Def Con from 6.61768e-008 to 6.61775e-008
Heightened Def Con from 6.61814e-008 to 6.61873e-008
Heightened Def Con from 6.61907e-008 to 6.62082e-008
Heightened Def Con from 6.62135e-008 to 6.6231e-008
Heightened Def Con from 6.62349e-008 to 6.62525e-008
Heightened Def Con from 6.62537e-008 to 6.62559e-008
Heightened Def Con from 6.62563e-008 to 6.62641e-008
Heightened Def Con from 6.62664e-008 to 6.62725e-008
Heightened Def Con from 6.62739e-008 to 6.62878e-008
Heightened Def Con from 6.62905e-008 to 6.62986e-008
Heightened Def Con from 6.63016e-008 to 6.63038e-008
Heightened Def Con from 6.6308e-008 to 6.63119e-008
Heightened Def Con from 6.63154e-008 to 6.63232e-008
Heightened Def Con from 6.63287e-008 to 6.63346e-008
Heightened Def Con from 6.63352e-008 to 6.63411e-008
Heightened Def Con from 6.63416e-008 to 6.63423e-008
Heightened Def Con from 6.63434e-008 to 6.63592e-008
Heightened Def Con from 6.63608e-008 to 6.63666e-008
Heightened Def Con from 6.63809e-008 to 6.63831e-008
Heightened Def Con from 6.63846e-008 to 6.63904e-008
Heightened Def Con from 6.64173e-008 to 6.6418e-008
Heightened Def Con from 6.64191e-008 to 6.64194e-008
Heightened Def Con from 6.64198e-008 to 6.642e-008
Heightened Def Con from 6.642e-008 to 6.64242e-008
Heightened Def Con from 6.64252e-008 to 6.64271e-008
Heightened Def Con from 6.64271e-008 to 6.64313e-008
Heightened Def Con from 6.64319e-008 to 6.64494e-008
Heightened Def Con from 6.64532e-008 to 6.6463e-008
Heightened Def Con from 6.64669e-008 to 6.64677e-008
Heightened Def Con from 6.64679e-008 to 6.64687e-008
Heightened Def Con from 6.64687e-008 to 6.64729e-008
Heightened Def Con from 6.64734e-008 to 6.74734e-008
Heightened Def Con from 6.74737e-008 to 6.74795e-008
Heightened Def Con from 6.7493e-008 to 6.74936e-008
Heightened Def Con from 6.74954e-008 to 6.75032e-008
Heightened Def Con from 6.75084e-008 to 6.75162e-008
Heightened Def Con from 6.75204e-008 to 6.85224e-008
Heightened Def Con from 6.85712e-008 to 6.85771e-008
Heightened Def Con from 6.85822e-008 to 6.85998e-008
Heightened Def Con from 6.86075e-008 to 6.86407e-008
Heightened Def Con from 6.86446e-008 to 6.96465e-008
Heightened Def Con from 6.96489e-008 to 6.96646e-008
Heightened Def Con from 6.96677e-008 to 6.96678e-008
Heightened Def Con from 6.9668e-008 to 6.96702e-008
Heightened Def Con from 6.96709e-008 to 6.96809e-008
Heightened Def Con from 6.96814e-008 to 6.96894e-008
Heightened Def Con from 6.96904e-008 to 6.96916e-008
Heightened Def Con from 6.96941e-008 to 6.97002e-008
Heightened Def Con from 6.97057e-008 to 6.97118e-008
Heightened Def Con from 6.97577e-008 to 6.97635e-008
Heightened Def Con from 6.97683e-008 to 6.9769e-008
Heightened Def Con from 6.97702e-008 to 6.9771e-008
Heightened Def Con from 6.9771e-008 to 6.97752e-008
Heightened Def Con from 6.97801e-008 to 6.97843e-008
Heightened Def Con from 6.97906e-008 to 6.98082e-008
Heightened Def Con from 6.98163e-008 to 6.98339e-008
Heightened Def Con from 6.98686e-008 to 6.98728e-008
Heightened Def Con from 6.98783e-008 to 6.98959e-008
Heightened Def Con from 6.99122e-008 to 6.99144e-008
Heightened Def Con from 6.99281e-008 to 6.99359e-008
Heightened Def Con from 6.99756e-008 to 6.99795e-008
Heightened Def Con from 6.99795e-008 to 6.998e-008
Heightened Def Con from 6.99807e-008 to 6.99829e-008
Heightened Def Con from 7.00084e-008 to 7.00143e-008
Heightened Def Con from 7.00179e-008 to 7.00667e-008
Heightened Def Con from 7.01021e-008 to 7.01196e-008
Heightened Def Con from 7.01294e-008 to 7.11313e-008
Heightened Def Con from 7.1225e-008 to 7.12407e-008
Heightened Def Con from 7.12408e-008 to 7.12449e-008
Heightened Def Con from 7.12452e-008 to 7.12767e-008
Heightened Def Con from 7.12825e-008 to 7.13001e-008
Heightened Def Con from 7.13107e-008 to 7.13166e-008
Heightened Def Con from 7.13186e-008 to 7.13264e-008
Heightened Def Con from 7.13269e-008 to 7.13276e-008
Heightened Def Con from 7.13315e-008 to 7.13393e-008
Heightened Def Con from 7.13457e-008 to 7.13464e-008
Heightened Def Con from 7.13633e-008 to 7.13791e-008
Heightened Def Con from 7.13895e-008 to 7.13903e-008
Heightened Def Con from 7.13915e-008 to 7.13954e-008
Heightened Def Con from 7.13997e-008 to 7.14036e-008
Heightened Def Con from 7.14234e-008 to 7.14254e-008
Heightened Def Con from 7.14276e-008 to 7.14452e-008
Heightened Def Con from 7.14696e-008 to 7.14718e-008
Heightened Def Con from 7.14777e-008 to 7.14799e-008
Heightened Def Con from 7.148e-008 to 7.14976e-008
Heightened Def Con from 7.15144e-008 to 7.15166e-008
Heightened Def Con from 7.15263e-008 to 7.15264e-008
Heightened Def Con from 7.15278e-008 to 7.15454e-008
Heightened Def Con from 7.15742e-008 to 7.1582e-008
Heightened Def Con from 7.15844e-008 to 7.16019e-008
Heightened Def Con from 7.16045e-008 to 7.16104e-008
Heightened Def Con from 7.16285e-008 to 7.26288e-008
Heightened Def Con from 7.26297e-008 to 7.26473e-008
Heightened Def Con from 7.26715e-008 to 7.26793e-008
Heightened Def Con from 7.27273e-008 to 7.37292e-008
Heightened Def Con from 7.37514e-008 to 7.37592e-008
Heightened Def Con from 7.37618e-008 to 7.37696e-008
Heightened Def Con from 7.37716e-008 to 7.37794e-008
Heightened Def Con from 7.38046e-008 to 7.38124e-008
Heightened Def Con from 7.38222e-008 to 7.38223e-008
Heightened Def Con from 7.38223e-008 to 7.38243e-008
Heightened Def Con from 7.38252e-008 to 7.38259e-008
Heightened Def Con from 7.38261e-008 to 7.38282e-008
Heightened Def Con from 7.38291e-008 to 7.38313e-008
Heightened Def Con from 7.38352e-008 to 7.38374e-008
Heightened Def Con from 7.3839e-008 to 7.38548e-008
Heightened Def Con from 7.38589e-008 to 7.38764e-008
Heightened Def Con from 7.38815e-008 to 7.38818e-008
Heightened Def Con from 7.38828e-008 to 7.39316e-008
Heightened Def Con from 7.39356e-008 to 7.39414e-008
Heightened Def Con from 7.39577e-008 to 7.39656e-008
Heightened Def Con from 7.39736e-008 to 7.39814e-008
Heightened Def Con from 7.40035e-008 to 7.40193e-008
Heightened Def Con from 7.40292e-008 to 7.40312e-008
Heightened Def Con from 7.40324e-008 to 7.405e-008
Heightened Def Con from 7.40544e-008 to 7.40566e-008
Heightened Def Con from 7.40571e-008 to 7.40729e-008
Heightened Def Con from 7.40736e-008 to 7.40794e-008
Heightened Def Con from 7.4085e-008 to 7.41026e-008
Heightened Def Con from 7.41058e-008 to 7.4139e-008
Heightened Def Con from 7.41486e-008 to 7.41493e-008
Heightened Def Con from 7.41494e-008 to 7.41612e-008
Heightened Def Con from 7.41629e-008 to 7.41688e-008
Heightened Def Con from 7.41756e-008 to 7.41913e-008
Heightened Def Con from 7.41913e-008 to 7.41971e-008
Heightened Def Con from 7.41989e-008 to 7.42165e-008
Heightened Def Con from 7.42237e-008 to 7.42257e-008
Heightened Def Con from 7.42305e-008 to 7.42364e-008
Heightened Def Con from 7.426e-008 to 7.42759e-008
Heightened Def Con from 7.4276e-008 to 7.42818e-008
Heightened Def Con from 7.42833e-008 to 7.42855e-008
Heightened Def Con from 7.42935e-008 to 7.42943e-008
Heightened Def Con from 7.42949e-008 to 7.42991e-008
Heightened Def Con from 7.43022e-008 to 7.43044e-008
Heightened Def Con from 7.43057e-008 to 7.43116e-008
Heightened Def Con from 7.43245e-008 to 7.43404e-008
Heightened Def Con from 7.43432e-008 to 7.43474e-008
Heightened Def Con from 7.435e-008 to 7.43505e-008
Heightened Def Con from 7.43526e-008 to 7.43567e-008
Heightened Def Con from 7.43568e-008 to 7.43666e-008
Heightened Def Con from 7.43753e-008 to 7.43795e-008
Heightened Def Con from 7.43806e-008 to 7.43827e-008
Heightened Def Con from 7.43828e-008 to 7.43838e-008
Heightened Def Con from 7.43844e-008 to 7.43849e-008
Heightened Def Con from 7.4385e-008 to 7.43908e-008
Heightened Def Con from 7.4394e-008 to 7.44097e-008
Heightened Def Con from 7.44097e-008 to 7.44272e-008
Heightened Def Con from 7.44371e-008 to 7.44432e-008
Heightened Def Con from 7.44446e-008 to 7.45716e-008
Heightened Def Con from 7.45802e-008 to 7.45822e-008
Heightened Def Con from 7.45848e-008 to 7.45927e-008
Heightened Def Con from 7.45931e-008 to 7.4609e-008
Heightened Def Con from 7.46123e-008 to 7.4622e-008
Heightened Def Con from 7.46221e-008 to 7.4638e-008
Heightened Def Con from 7.46407e-008 to 7.46412e-008
Heightened Def Con from 7.46451e-008 to 7.46459e-008
Heightened Def Con from 7.4649e-008 to 7.46532e-008
Heightened Def Con from 7.46572e-008 to 7.46579e-008
Heightened Def Con from 7.46603e-008 to 7.46662e-008
Heightened Def Con from 7.46666e-008 to 7.46724e-008
Heightened Def Con from 7.46728e-008 to 7.46787e-008
Heightened Def Con from 7.46796e-008 to 7.46855e-008
Heightened Def Con from 7.47012e-008 to 7.47031e-008
Heightened Def Con from 7.47146e-008 to 7.47224e-008
Heightened Def Con from 7.47299e-008 to 7.47338e-008
Heightened Def Con from 7.47347e-008 to 7.48597e-008
Heightened Def Con from 7.48605e-008 to 7.48764e-008
Heightened Def Con from 7.48772e-008 to 7.48794e-008
Heightened Def Con from 7.48847e-008 to 7.4916e-008
Heightened Def Con from 7.4916e-008 to 7.4916e-008
Heightened Def Con from 7.49178e-008 to 7.49237e-008
Heightened Def Con from 7.49293e-008 to 7.49315e-008
Heightened Def Con from 7.49412e-008 to 7.49588e-008
Heightened Def Con from 7.4971e-008 to 7.49732e-008
Heightened Def Con from 7.49738e-008 to 7.49914e-008
Heightened Def Con from 7.49917e-008 to 7.49939e-008
Heightened Def Con from 7.49948e-008 to 7.50026e-008
Heightened Def Con from 7.50506e-008 to 7.50507e-008
Heightened Def Con from 7.50532e-008 to 7.50537e-008
Heightened Def Con from 7.50557e-008 to 7.50564e-008
Heightened Def Con from 7.50577e-008 to 7.50636e-008
Heightened Def Con from 7.50841e-008 to 7.6086e-008
Heightened Def Con from 7.60899e-008 to 7.6096e-008
Heightened Def Con from 7.60974e-008 to 7.60975e-008
Heightened Def Con from 7.60975e-008 to 7.60976e-008
Heightened Def Con from 7.60976e-008 to 7.61035e-008
Heightened Def Con from 7.61035e-008 to 7.61135e-008
Heightened Def Con from 7.61139e-008 to 7.61159e-008
Heightened Def Con from 7.61159e-008 to 7.61201e-008
Heightened Def Con from 7.61201e-008 to 7.61279e-008
Heightened Def Con from 7.61279e-008 to 7.61377e-008
Heightened Def Con from 7.61425e-008 to 7.61428e-008
Heightened Def Con from 7.61432e-008 to 7.71434e-008
Heightened Def Con from 7.7146e-008 to 7.71636e-008
Heightened Def Con from 7.71752e-008 to 7.71774e-008
Heightened Def Con from 7.71782e-008 to 7.71804e-008
Heightened Def Con from 7.71819e-008 to 7.71826e-008
Heightened Def Con from 7.71849e-008 to 7.71871e-008
Heightened Def Con from 7.71877e-008 to 7.71884e-008
Heightened Def Con from 7.71906e-008 to 7.71964e-008
Heightened Def Con from 7.72027e-008 to 7.72105e-008
Heightened Def Con from 7.72219e-008 to 7.82238e-008
Heightened Def Con from 7.82248e-008 to 7.82268e-008
Heightened Def Con from 7.82291e-008 to 7.82467e-008
Heightened Def Con from 7.82616e-008 to 7.82638e-008
Heightened Def Con from 7.82696e-008 to 7.82735e-008
Heightened Def Con from 7.82788e-008 to 7.82866e-008
Heightened Def Con from 7.82996e-008 to 7.83055e-008
Heightened Def Con from 7.8314e-008 to 7.83472e-008
Heightened Def Con from 7.83479e-008 to 7.83487e-008
Heightened Def Con from 7.8349e-008 to 7.83493e-008
Heightened Def Con from 7.83495e-008 to 7.83502e-008
Heightened Def Con from 7.83503e-008 to 7.84128e-008
Heightened Def Con from 7.84294e-008 to 7.84297e-008
Heightened Def Con from 7.843e-008 to 7.94456e-008
Heightened Def Con from 7.94779e-008 to 7.94784e-008
Heightened Def Con from 7.94788e-008 to 7.94846e-008
Heightened Def Con from 7.94932e-008 to 7.94954e-008
Heightened Def Con from 7.94957e-008 to 7.95133e-008
Heightened Def Con from 7.95168e-008 to 7.95171e-008
Heightened Def Con from 7.95178e-008 to 8.05197e-008
Heightened Def Con from 8.05628e-008 to 8.0565e-008
Heightened Def Con from 8.05717e-008 to 8.05796e-008
Heightened Def Con from 8.05956e-008 to 8.06115e-008
Heightened Def Con from 8.06125e-008 to 8.06457e-008
Heightened Def Con from 8.06497e-008 to 8.06539e-008
Heightened Def Con from 8.06616e-008 to 8.06675e-008
Heightened Def Con from 8.07132e-008 to 8.07171e-008
Heightened Def Con from 8.07244e-008 to 8.0742e-008
Heightened Def Con from 8.07421e-008 to 8.07423e-008
Heightened Def Con from 8.07423e-008 to 8.07484e-008
Heightened Def Con from 8.07527e-008 to 8.07547e-008
Heightened Def Con from 8.07554e-008 to 8.07632e-008
Heightened Def Con from 8.0769e-008 to 8.08179e-008
Heightened Def Con from 8.0822e-008 to 8.0824e-008
Heightened Def Con from 8.0824e-008 to 8.08399e-008
Heightened Def Con from 8.08418e-008 to 8.08425e-008
Heightened Def Con from 8.08481e-008 to 8.08559e-008
Heightened Def Con from 8.08808e-008 to 8.08867e-008
Heightened Def Con from 8.08923e-008 to 8.18942e-008
Heightened Def Con from 8.19201e-008 to 8.19242e-008
Heightened Def Con from 8.19375e-008 to 8.19612e-008
Heightened Def Con from 8.19649e-008 to 8.19824e-008
Heightened Def Con from 8.19996e-008 to 8.19997e-008
Heightened Def Con from 8.19998e-008 to 8.20003e-008
Heightened Def Con from 8.2001e-008 to 8.20032e-008
Heightened Def Con from 8.2014e-008 to 8.20198e-008
Heightened Def Con from 8.20212e-008 to 8.2022e-008
Heightened Def Con from 8.20241e-008 to 8.20397e-008
Heightened Def Con from 8.20401e-008 to 8.20404e-008
Heightened Def Con from 8.20411e-008 to 8.20433e-008
Heightened Def Con from 8.20463e-008 to 8.20485e-008
Heightened Def Con from 8.20506e-008 to 8.20682e-008
Heightened Def Con from 8.20827e-008 to 8.20886e-008
Heightened Def Con from 8.21004e-008 to 8.21062e-008
Heightened Def Con from 8.21216e-008 to 8.21392e-008
Heightened Def Con from 8.21795e-008 to 8.21971e-008
Heightened Def Con from 8.2204e-008 to 8.22043e-008
Heightened Def Con from 8.22047e-008 to 8.2205e-008
Heightened Def Con from 8.22076e-008 to 8.22096e-008
Heightened Def Con from 8.221e-008 to 8.22122e-008
Heightened Def Con from 8.22147e-008 to 8.22167e-008
Heightened Def Con from 8.22169e-008 to 8.22267e-008
Heightened Def Con from 8.22337e-008 to 8.22337e-008
Heightened Def Con from 8.22337e-008 to 8.22415e-008
Heightened Def Con from 8.22506e-008 to 8.22528e-008
Heightened Def Con from 8.22609e-008 to 8.2265e-008
Heightened Def Con from 8.22664e-008 to 8.22683e-008
Heightened Def Con from 8.22685e-008 to 8.22746e-008
Heightened Def Con from 8.22748e-008 to 8.22807e-008
Heightened Def Con from 8.22812e-008 to 8.22834e-008
Heightened Def Con from 8.22836e-008 to 8.22894e-008
Heightened Def Con from 8.22981e-008 to 8.22984e-008
Heightened Def Con from 8.22989e-008 to 8.23031e-008
Heightened Def Con from 8.23074e-008 to 8.23116e-008
Heightened Def Con from 8.23116e-008 to 8.23194e-008
Heightened Def Con from 8.23209e-008 to 8.23267e-008
Heightened Def Con from 8.23268e-008 to 8.2329e-008
Heightened Def Con from 8.23325e-008 to 8.23501e-008
Heightened Def Con from 8.23503e-008 to 8.23525e-008
Heightened Def Con from 8.23535e-008 to 8.23557e-008
Heightened Def Con from 8.23573e-008 to 8.23632e-008
Heightened Def Con from 8.23693e-008 to 8.23713e-008
Heightened Def Con from 8.23715e-008 to 8.23737e-008
Heightened Def Con from 8.23752e-008 to 8.33771e-008
Heightened Def Con from 8.3402e-008 to 8.34042e-008
Heightened Def Con from 8.34043e-008 to 8.34065e-008
Heightened Def Con from 8.34069e-008 to 8.34127e-008
Heightened Def Con from 8.34153e-008 to 8.34192e-008
Heightened Def Con from 8.34192e-008 to 8.34271e-008
Heightened Def Con from 8.34272e-008 to 8.34277e-008
Heightened Def Con from 8.34277e-008 to 8.34297e-008
Heightened Def Con from 8.34299e-008 to 8.34357e-008
Heightened Def Con from 8.34443e-008 to 8.34444e-008
Heightened Def Con from 8.34444e-008 to 8.34502e-008
Heightened Def Con from 8.3461e-008 to 8.34769e-008
Heightened Def Con from 8.34817e-008 to 8.34993e-008
Heightened Def Con from 8.35202e-008 to 8.35224e-008
Heightened Def Con from 8.35229e-008 to 8.35307e-008
Heightened Def Con from 8.35372e-008 to 8.35394e-008
Heightened Def Con from 8.35402e-008 to 8.35424e-008
Heightened Def Con from 8.35434e-008 to 8.35456e-008
Heightened Def Con from 8.35456e-008 to 8.35515e-008
Heightened Def Con from 8.35631e-008 to 8.35653e-008
Heightened Def Con from 8.35662e-008 to 8.35684e-008
Heightened Def Con from 8.35784e-008 to 8.35794e-008
Heightened Def Con from 8.35795e-008 to 8.35803e-008
Heightened Def Con from 8.35845e-008 to 8.35854e-008
Heightened Def Con from 8.35958e-008 to 8.36134e-008
Heightened Def Con from 8.36209e-008 to 8.3621e-008
Heightened Def Con from 8.36272e-008 to 8.36279e-008
Heightened Def Con from 8.36283e-008 to 8.36341e-008
Heightened Def Con from 8.36358e-008 to 8.36436e-008
Heightened Def Con from 8.36449e-008 to 8.36508e-008
Heightened Def Con from 8.36652e-008 to 8.36694e-008
Heightened Def Con from 8.3671e-008 to 8.36788e-008
Heightened Def Con from 8.36881e-008 to 8.37039e-008
Heightened Def Con from 8.37052e-008 to 8.37074e-008
Heightened Def Con from 8.37091e-008 to 8.37113e-008
Heightened Def Con from 8.37144e-008 to 8.37242e-008
Heightened Def Con from 8.3728e-008 to 8.3855e-008
Heightened Def Con from 8.38556e-008 to 8.38561e-008
Heightened Def Con from 8.38563e-008 to 8.38585e-008
Heightened Def Con from 8.38599e-008 to 8.38609e-008
Heightened Def Con from 8.38673e-008 to 8.38673e-008
Heightened Def Con from 8.38677e-008 to 8.38699e-008
Heightened Def Con from 8.38699e-008 to 8.38701e-008
Heightened Def Con from 8.38703e-008 to 8.38722e-008
Heightened Def Con from 8.38724e-008 to 8.38782e-008
Heightened Def Con from 8.38854e-008 to 8.38855e-008
Heightened Def Con from 8.38856e-008 to 8.38862e-008
Heightened Def Con from 8.38884e-008 to 8.48904e-008
Heightened Def Con from 8.49017e-008 to 8.49115e-008
Heightened Def Con from 8.49351e-008 to 8.49393e-008
Heightened Def Con from 8.49439e-008 to 8.49614e-008
Heightened Def Con from 8.4974e-008 to 8.59897e-008
Heightened Def Con from 8.59944e-008 to 8.59986e-008
Heightened Def Con from 8.60034e-008 to 8.60112e-008
Heightened Def Con from 8.60139e-008 to 8.60217e-008
Heightened Def Con from 8.60219e-008 to 8.70222e-008
Heightened Def Con from 8.70252e-008 to 8.70428e-008
Heightened Def Con from 8.70694e-008 to 8.70772e-008
Heightened Def Con from 8.70892e-008 to 8.70895e-008
Heightened Def Con from 8.70895e-008 to 8.70897e-008
Heightened Def Con from 8.70897e-008 to 8.70903e-008
Heightened Def Con from 8.70903e-008 to 8.70962e-008
Heightened Def Con from 8.71005e-008 to 8.71012e-008
Heightened Def Con from 8.71117e-008 to 8.71118e-008
Heightened Def Con from 8.71118e-008 to 8.81274e-008
Heightened Def Con from 8.81283e-008 to 8.81344e-008
Heightened Def Con from 8.81353e-008 to 8.81411e-008
Heightened Def Con from 8.81503e-008 to 8.81523e-008
Heightened Def Con from 8.81541e-008 to 8.91543e-008
Heightened Def Con from 8.91578e-008 to 8.916e-008
Heightened Def Con from 8.91608e-008 to 8.9163e-008
Heightened Def Con from 8.91662e-008 to 8.91821e-008
Heightened Def Con from 8.91828e-008 to 8.91847e-008
Heightened Def Con from 8.91848e-008 to 8.91867e-008
Heightened Def Con from 8.9188e-008 to 8.9188e-008
Heightened Def Con from 8.91891e-008 to 8.91969e-008
Heightened Def Con from 8.92164e-008 to 8.9234e-008
Heightened Def Con from 8.93116e-008 to 8.93119e-008
Heightened Def Con from 8.93121e-008 to 8.9316e-008
Heightened Def Con from 8.93184e-008 to 8.93225e-008
Heightened Def Con from 8.93369e-008 to 8.9341e-008
Heightened Def Con from 8.93433e-008 to 8.93434e-008
Heightened Def Con from 8.93434e-008 to 8.9361e-008
Heightened Def Con from 8.93657e-008 to 8.93833e-008
Heightened Def Con from 8.93998e-008 to 8.94194e-008
Heightened Def Con from 8.94197e-008 to 8.94219e-008
Heightened Def Con from 8.94254e-008 to 8.94335e-008
Heightened Def Con from 8.9436e-008 to 8.94399e-008
Heightened Def Con from 8.94403e-008 to 8.9462e-008
Heightened Def Con from 8.9462e-008 to 8.94632e-008
Heightened Def Con from 8.94634e-008 to 8.9481e-008
Heightened Def Con from 8.9487e-008 to 8.9489e-008
Heightened Def Con from 8.9489e-008 to 8.94931e-008
Heightened Def Con from 8.94964e-008 to 8.94965e-008
Heightened Def Con from 8.94965e-008 to 8.95006e-008
Heightened Def Con from 8.95021e-008 to 8.95024e-008
Heightened Def Con from 8.95063e-008 to 8.95104e-008
Heightened Def Con from 8.95132e-008 to 8.95132e-008
Heightened Def Con from 8.95133e-008 to 8.95175e-008
Heightened Def Con from 8.95175e-008 to 8.95217e-008
Heightened Def Con from 8.95217e-008 to 8.95278e-008
Heightened Def Con from 8.95342e-008 to 8.9535e-008
Heightened Def Con from 8.95378e-008 to 8.95417e-008
Heightened Def Con from 8.95438e-008 to 8.9548e-008
Heightened Def Con from 8.95488e-008 to 8.95491e-008
Heightened Def Con from 8.95511e-008 to 8.95512e-008
Heightened Def Con from 8.95512e-008 to 8.95553e-008
Heightened Def Con from 8.9557e-008 to 8.9559e-008
Heightened Def Con from 8.95591e-008 to 8.95767e-008
Heightened Def Con from 8.9605e-008 to 8.96089e-008
Heightened Def Con from 8.96094e-008 to 8.96172e-008
Heightened Def Con from 8.96255e-008 to 8.96262e-008
Heightened Def Con from 8.96338e-008 to 8.96416e-008
Heightened Def Con from 8.96449e-008 to 8.96471e-008
Heightened Def Con from 8.96471e-008 to 8.96472e-008
Heightened Def Con from 8.96472e-008 to 8.96472e-008
Heightened Def Con from 8.96472e-008 to 8.96533e-008
Heightened Def Con from 8.9654e-008 to 8.96599e-008
Heightened Def Con from 8.96599e-008 to 8.96677e-008
Heightened Def Con from 8.96868e-008 to 8.96868e-008
Heightened Def Con from 8.96869e-008 to 8.97045e-008
Heightened Def Con from 8.97047e-008 to 8.97067e-008
Heightened Def Con from 8.97069e-008 to 8.97147e-008
Heightened Def Con from 8.9719e-008 to 8.972e-008
Heightened Def Con from 8.97254e-008 to 8.97255e-008
Heightened Def Con from 8.97255e-008 to 8.97277e-008
Heightened Def Con from 8.97279e-008 to 8.97301e-008
Heightened Def Con from 8.97319e-008 to 8.97378e-008
Heightened Def Con from 8.9738e-008 to 8.97439e-008
Heightened Def Con from 8.97988e-008 to 8.97989e-008
Heightened Def Con from 8.98043e-008 to 8.98065e-008
Heightened Def Con from 8.98108e-008 to 8.98167e-008
Heightened Def Con from 8.98188e-008 to 8.98364e-008
Heightened Def Con from 8.98486e-008 to 8.98508e-008
Heightened Def Con from 8.98586e-008 to 8.98625e-008
Heightened Def Con from 8.98631e-008 to 8.98709e-008
Heightened Def Con from 8.98732e-008 to 8.98791e-008
Heightened Def Con from 8.98817e-008 to 8.99305e-008
Heightened Def Con from 8.99393e-008 to 8.99434e-008
Heightened Def Con from 8.99596e-008 to 8.99601e-008
Heightened Def Con from 8.99647e-008 to 8.99657e-008
Heightened Def Con from 8.9969e-008 to 8.99692e-008
Heightened Def Con from 8.99692e-008 to 8.9977e-008
Heightened Def Con from 8.99925e-008 to 9.01175e-008
Heightened Def Con from 9.01175e-008 to 9.01195e-008
Heightened Def Con from 9.01196e-008 to 9.01238e-008
Heightened Def Con from 9.01315e-008 to 9.02585e-008
Heightened Def Con from 9.02656e-008 to 9.02675e-008
Heightened Def Con from 9.02689e-008 to 9.02747e-008
Heightened Def Con from 9.02782e-008 to 9.04052e-008
Heightened Def Con from 9.04242e-008 to 9.04284e-008
Heightened Def Con from 9.04352e-008 to 9.04353e-008
Heightened Def Con from 9.04353e-008 to 9.04358e-008
Heightened Def Con from 9.04361e-008 to 9.04403e-008
Heightened Def Con from 9.04422e-008 to 9.04483e-008
Heightened Def Con from 9.04484e-008 to 9.04485e-008
Heightened Def Con from 9.04485e-008 to 9.04507e-008
Heightened Def Con from 9.04507e-008 to 9.04514e-008
Heightened Def Con from 9.04524e-008 to 9.04582e-008
Heightened Def Con from 9.04597e-008 to 9.04929e-008
Heightened Def Con from 9.04989e-008 to 9.05028e-008
Heightened Def Con from 9.0503e-008 to 9.05089e-008
Heightened Def Con from 9.05095e-008 to 9.05135e-008
Heightened Def Con from 9.05136e-008 to 9.05156e-008
Heightened Def Con from 9.0518e-008 to 9.05188e-008
Heightened Def Con from 9.05213e-008 to 9.05272e-008
Heightened Def Con from 9.05446e-008 to 9.05453e-008
Heightened Def Con from 9.05531e-008 to 9.05539e-008
Heightened Def Con from 9.05595e-008 to 9.05617e-008
Heightened Def Con from 9.05629e-008 to 9.15785e-008
Heightened Def Con from 9.1579e-008 to 9.15965e-008
Heightened Def Con from 9.16133e-008 to 9.16155e-008
Heightened Def Con from 9.16177e-008 to 9.16184e-008
Heightened Def Con from 9.16185e-008 to 9.16192e-008
Heightened Def Con from 9.16195e-008 to 9.162e-008
Heightened Def Con from 9.16203e-008 to 9.16379e-008
Heightened Def Con from 9.16392e-008 to 9.16451e-008
Heightened Def Con from 9.16469e-008 to 9.16491e-008
Heightened Def Con from 9.16591e-008 to 9.16591e-008
Heightened Def Con from 9.16591e-008 to 9.1665e-008
Heightened Def Con from 9.16654e-008 to 9.16712e-008
Heightened Def Con from 9.16782e-008 to 9.16783e-008
Heightened Def Con from 9.16859e-008 to 9.18129e-008
Heightened Def Con from 9.18203e-008 to 9.18379e-008
Heightened Def Con from 9.18398e-008 to 9.18438e-008
Heightened Def Con from 9.18503e-008 to 9.18545e-008
Heightened Def Con from 9.18569e-008 to 9.1857e-008
Heightened Def Con from 9.18576e-008 to 9.28596e-008
Heightened Def Con from 9.28616e-008 to 9.28773e-008
Heightened Def Con from 9.28797e-008 to 9.28819e-008
Heightened Def Con from 9.28826e-008 to 9.28885e-008
Heightened Def Con from 9.29052e-008 to 9.29111e-008
Heightened Def Con from 9.29228e-008 to 9.29403e-008
Heightened Def Con from 9.29546e-008 to 9.29643e-008
Heightened Def Con from 9.29856e-008 to 9.29863e-008
Heightened Def Con from 9.29964e-008 to 9.29986e-008
Heightened Def Con from 9.3003e-008 to 9.30091e-008
Heightened Def Con from 9.30096e-008 to 9.30155e-008
Heightened Def Con from 9.30166e-008 to 9.30169e-008
Heightened Def Con from 9.30175e-008 to 9.30233e-008
Heightened Def Con from 9.30269e-008 to 9.30444e-008
Heightened Def Con from 9.30557e-008 to 9.30615e-008
Heightened Def Con from 9.3069e-008 to 9.30693e-008
Heightened Def Con from 9.307e-008 to 9.30722e-008
Heightened Def Con from 9.30733e-008 to 9.30755e-008
Heightened Def Con from 9.30886e-008 to 9.40906e-008
Heightened Def Con from 9.40987e-008 to 9.41007e-008
Heightened Def Con from 9.4101e-008 to 9.41088e-008
Heightened Def Con from 9.41207e-008 to 9.41248e-008
Heightened Def Con from 9.41559e-008 to 9.416e-008
Heightened Def Con from 9.41647e-008 to 9.41823e-008
Heightened Def Con from 9.41825e-008 to 9.42001e-008
Heightened Def Con from 9.4207e-008 to 9.42071e-008
Heightened Def Con from 9.42071e-008 to 9.42073e-008
Heightened Def Con from 9.42103e-008 to 9.42125e-008
Heightened Def Con from 9.4214e-008 to 9.42628e-008
Heightened Def Con from 9.42741e-008 to 9.42744e-008
Heightened Def Con from 9.42747e-008 to 9.42806e-008
Heightened Def Con from 9.42841e-008 to 9.5286e-008
Heightened Def Con from 9.52891e-008 to 9.52969e-008
Heightened Def Con from 9.53246e-008 to 9.53422e-008
Heightened Def Con from 9.53971e-008 to 9.54303e-008
Heightened Def Con from 9.54303e-008 to 9.54304e-008
Heightened Def Con from 9.54304e-008 to 9.54382e-008
Heightened Def Con from 9.5442e-008 to 9.54421e-008
Heightened Def Con from 9.54422e-008 to 9.54481e-008
Heightened Def Con from 9.5461e-008 to 9.54689e-008
Heightened Def Con from 9.54719e-008 to 9.54895e-008
Heightened Def Con from 9.54996e-008 to 9.64999e-008
Heightened Def Con from 9.64999e-008 to 9.65175e-008
Heightened Def Con from 9.65175e-008 to 9.65216e-008
Heightened Def Con from 9.65319e-008 to 9.6536e-008
Heightened Def Con from 9.65416e-008 to 9.65592e-008
Heightened Def Con from 9.65708e-008 to 9.65866e-008
Heightened Def Con from 9.65873e-008 to 9.65915e-008
Heightened Def Con from 9.6593e-008 to 9.65938e-008
Heightened Def Con from 9.65965e-008 to 9.6597e-008
Heightened Def Con from 9.65983e-008 to 9.66159e-008
Heightened Def Con from 9.66182e-008 to 9.66224e-008
Heightened Def Con from 9.66296e-008 to 9.66374e-008
Heightened Def Con from 9.66415e-008 to 9.66591e-008
Heightened Def Con from 9.66665e-008 to 9.66724e-008
Heightened Def Con from 9.6691e-008 to 9.67085e-008
Heightened Def Con from 9.67138e-008 to 9.67297e-008
Heightened Def Con from 9.67331e-008 to 9.6737e-008
Heightened Def Con from 9.67404e-008 to 9.67579e-008
Heightened Def Con from 9.67866e-008 to 9.67925e-008
Heightened Def Con from 9.68032e-008 to 9.68072e-008
Heightened Def Con from 9.68072e-008 to 9.68404e-008
Heightened Def Con from 9.68496e-008 to 9.68672e-008
Heightened Def Con from 9.69014e-008 to 9.69019e-008
Heightened Def Con from 9.6906e-008 to 9.69065e-008
Heightened Def Con from 9.69066e-008 to 9.70318e-008
Heightened Def Con from 9.70327e-008 to 9.70386e-008
Heightened Def Con from 9.70487e-008 to 9.80507e-008
Heightened Def Con from 9.83383e-008 to 9.83559e-008
Heightened Def Con from 9.83761e-008 to 9.83764e-008
Heightened Def Con from 9.83764e-008 to 9.84389e-008
Heightened Def Con from 9.84452e-008 to 9.84628e-008
Heightened Def Con from 9.84774e-008 to 9.84816e-008
Heightened Def Con from 9.84907e-008 to 9.85083e-008
Heightened Def Con from 9.85415e-008 to 9.8559e-008
Heightened Def Con from 9.8561e-008 to 9.85669e-008
Heightened Def Con from 9.85858e-008 to 9.86483e-008
Heightened Def Con from 9.8668e-008 to 9.86738e-008
Heightened Def Con from 9.86962e-008 to 9.87294e-008
Heightened Def Con from 9.87445e-008 to 9.97447e-008
Heightened Def Con from 9.9755e-008 to 9.97591e-008
Heightened Def Con from 9.9772e-008 to 9.97879e-008
Heightened Def Con from 9.97912e-008 to 9.97971e-008
Heightened Def Con from 9.98125e-008 to 9.9875e-008
Heightened Def Con from 9.9956e-008 to 9.99735e-008
Heightened Def Con from 9.99777e-008 to 9.99933e-008
Heightened Def Con from 1.00004e-007 to 1.00019e-007
Heightened Def Con from 1.00022e-007 to 1.00039e-007
Heightened Def Con from 1.00065e-007 to 1.00114e-007
Heightened Def Con from 1.00133e-007 to 1.0018e-007
Heightened Def Con from 1.00254e-007 to 1.00256e-007
Heightened Def Con from 1.00282e-007 to 1.00423e-007
Heightened Def Con from 1.00442e-007 to 1.00458e-007
Heightened Def Con from 1.00463e-007 to 1.00467e-007
Heightened Def Con from 1.0047e-007 to 1.00595e-007
Heightened Def Con from 1.00597e-007 to 1.00601e-007
Heightened Def Con from 1.00601e-007 to 1.00601e-007
Heightened Def Con from 1.00604e-007 to 1.00605e-007
Heightened Def Con from 1.00606e-007 to 1.00612e-007
Heightened Def Con from 1.00618e-007 to 1.00665e-007
Heightened Def Con from 1.00679e-007 to 1.0068e-007
Heightened Def Con from 1.00682e-007 to 1.00697e-007
Heightened Def Con from 1.00707e-007 to 1.00709e-007
Heightened Def Con from 1.00712e-007 to 1.00728e-007
Heightened Def Con from 1.00729e-007 to 1.00731e-007
Heightened Def Con from 1.00731e-007 to 1.00749e-007
Heightened Def Con from 1.00776e-007 to 1.00777e-007
Heightened Def Con from 1.00778e-007 to 1.00782e-007
Heightened Def Con from 1.008e-007 to 1.00808e-007
Heightened Def Con from 1.00818e-007 to 1.00959e-007
Heightened Def Con from 1.00966e-007 to 1.00983e-007
Heightened Def Con from 1.01032e-007 to 1.01036e-007
Heightened Def Con from 1.01045e-007 to 1.01047e-007
Heightened Def Con from 1.01049e-007 to 1.01066e-007
Heightened Def Con from 1.01093e-007 to 1.01093e-007
Heightened Def Con from 1.01093e-007 to 1.01111e-007
Heightened Def Con from 1.01116e-007 to 1.01256e-007
Heightened Def Con from 1.01262e-007 to 1.01264e-007
Heightened Def Con from 1.01264e-007 to 1.01312e-007
Heightened Def Con from 1.01317e-007 to 1.01335e-007
Heightened Def Con from 1.01354e-007 to 1.01358e-007
Heightened Def Con from 1.01361e-007 to 1.01363e-007
Heightened Def Con from 1.01365e-007 to 1.01371e-007
Heightened Def Con from 1.01381e-007 to 1.01382e-007
Heightened Def Con from 1.01389e-007 to 1.01406e-007
Heightened Def Con from 1.01461e-007 to 1.01463e-007
Heightened Def Con from 1.01473e-007 to 1.01477e-007
Heightened Def Con from 1.01483e-007 to 1.01491e-007
Heightened Def Con from 1.01497e-007 to 1.01513e-007
Heightened Def Con from 1.0152e-007 to 1.01537e-007
Heightened Def Con from 1.01596e-007 to 1.01599e-007
Heightened Def Con from 1.01615e-007 to 1.01616e-007
Heightened Def Con from 1.0162e-007 to 1.01626e-007
Heightened Def Con from 1.01626e-007 to 1.0163e-007
Heightened Def Con from 1.01645e-007 to 1.01649e-007
Heightened Def Con from 1.01653e-007 to 1.01658e-007
Heightened Def Con from 1.01668e-007 to 1.01686e-007
Heightened Def Con from 1.01703e-007 to 1.01721e-007
Heightened Def Con from 1.0179e-007 to 1.01807e-007
Heightened Def Con from 1.01809e-007 to 1.01812e-007
Heightened Def Con from 1.01814e-007 to 1.01814e-007
Heightened Def Con from 1.01825e-007 to 1.01831e-007
Heightened Def Con from 1.01834e-007 to 1.01838e-007
Heightened Def Con from 1.01844e-007 